/*---------------------------------------------------------------------------*\
  =========                 |
  \\      /  F ield         | OpenFOAM: The Open Source CFD Toolbox
   \\    /   O peration     | Website:  https://openfoam.org
    \\  /    A nd           | Version:  6
     \\/     M anipulation  |
\*---------------------------------------------------------------------------*/
Build  : 6-dd7a223e7d2f
Exec   : rhoCentralRealgasPFFoam
Date   : Jun 22 2023
Time   : 15:50:20
Host   : "nike-fastx-1-1.local"
PID    : 34883
I/O    : uncollated
Case   : /scratch.nike/srini237/OpenFOAM/temp/OpenFOAM-6/user/tutorials/TML_600_293_ISAT_1e_2
nProcs : 1
sigFpe : Enabling floating point exception trapping (FOAM_SIGFPE).
fileModificationChecking : Monitoring run-time modified files using timeStampMaster (fileModificationSkew 10)
allowSystemOperations : Allowing user-supplied system call operations

// * * * * * * * * * * * * * * * * * * * * * * * * * * * * * * * * * * * * * //
Create time

Create mesh for time = 1e-06

Reading thermophysical properties

Selecting thermodynamics package 
{
    type            ISATVLEheRhoThermo;
    mixture         nLreactingMixture;
    transport       chung;
    thermo          janaf;
    energy          sensibleInternalEnergy;
    equationOfState PengRobinson;
    specie          specie;
}

Selecting chemistryReader foamChemistryReader
y line
463.706390526	463.706390526	0.992940409999	0.00705959000117
y line
463.706390526	463.706390526	0.992940409999	0.00705959000117
y line
463.706390526	463.706390526	0.992940409999	0.00705959000117
Erhovfctree_XTP, ISAT performance: nCall = 0, notCall = 0, nRetrieved = 0, nGrowth = 0, nAdd = 0
Erhovfctree_XTP, recent info: nCall = 0, nRetrieved = 0, nGrowth = 0, nAdd = 0
NtimeSteps: 0, Treedepth: 0, Mindepth: 0
maxNLeafs: 1000
Reading field U
Creating turbulence model

Selecting turbulence model type laminar
Selecting laminar stress model Stokes
Creating field molecular weight - W
scheme is conservativeFlux
fluxScheme: Kurganov

Starting time loop

Mean and max Courant Numbers = 0.0814495667493 0.0985957759813
deltaT = 3.89105058366e-10
Time = 1.00039e-06

diagonal:  Solving for rho, Initial residual = 0, Final residual = 0, No Iterations 0
diagonal:  Solving for rhoUx, Initial residual = 0, Final residual = 0, No Iterations 0
diagonal:  Solving for rhoUz, Initial residual = 0, Final residual = 0, No Iterations 0
diagonal:  Solving for rhoYi, Initial residual = 0, Final residual = 0, No Iterations 0
diagonal:  Solving for rhoE, Initial residual = 0, Final residual = 0, No Iterations 0
y line
464.718370559	464.718370559	0.994063397598	0.00593660240174
y line
464.718370559	464.718370559	0.994063397598	0.00593660240174
y line
464.718370559	464.718370559	0.994063397598	0.00593660240174
ExecutionTime = 0.14 s  ClockTime = 0 s

Mean and max Courant Numbers = 0.0824422382947 0.0997843899961
deltaT = 3.89105058366e-10
Time = 1.00078e-06

diagonal:  Solving for rho, Initial residual = 0, Final residual = 0, No Iterations 0
diagonal:  Solving for rhoUx, Initial residual = 0, Final residual = 0, No Iterations 0
diagonal:  Solving for rhoUz, Initial residual = 0, Final residual = 0, No Iterations 0
diagonal:  Solving for rhoYi, Initial residual = 0, Final residual = 0, No Iterations 0
diagonal:  Solving for rhoE, Initial residual = 0, Final residual = 0, No Iterations 0
ExecutionTime = 0.16 s  ClockTime = 0 s

Mean and max Courant Numbers = 0.082454307976 0.0997853368572
deltaT = 3.89105058366e-10
Time = 1.00117e-06

diagonal:  Solving for rho, Initial residual = 0, Final residual = 0, No Iterations 0
diagonal:  Solving for rhoUx, Initial residual = 0, Final residual = 0, No Iterations 0
diagonal:  Solving for rhoUz, Initial residual = 0, Final residual = 0, No Iterations 0
diagonal:  Solving for rhoYi, Initial residual = 0, Final residual = 0, No Iterations 0
diagonal:  Solving for rhoE, Initial residual = 0, Final residual = 0, No Iterations 0
y line
465.87356825	465.87356825	0.99392245235	0.00607754765015
y line
465.87356825	465.87356825	0.99392245235	0.00607754765015
y line
465.87356825	465.87356825	0.99392245235	0.00607754765015
y line
465.87356825	465.87356825	0.99392245235	0.00607754765015
ExecutionTime = 0.18 s  ClockTime = 0 s

Mean and max Courant Numbers = 0.0824656693814 0.0997805902744
deltaT = 3.89105058366e-10
Time = 1.00156e-06

diagonal:  Solving for rho, Initial residual = 0, Final residual = 0, No Iterations 0
diagonal:  Solving for rhoUx, Initial residual = 0, Final residual = 0, No Iterations 0
diagonal:  Solving for rhoUz, Initial residual = 0, Final residual = 0, No Iterations 0
diagonal:  Solving for rhoYi, Initial residual = 0, Final residual = 0, No Iterations 0
diagonal:  Solving for rhoE, Initial residual = 0, Final residual = 0, No Iterations 0
ExecutionTime = 0.2 s  ClockTime = 0 s

Mean and max Courant Numbers = 0.0824760722987 0.0997702302014
deltaT = 3.89105058366e-10
Time = 1.00195e-06

diagonal:  Solving for rho, Initial residual = 0, Final residual = 0, No Iterations 0
diagonal:  Solving for rhoUx, Initial residual = 0, Final residual = 0, No Iterations 0
diagonal:  Solving for rhoUz, Initial residual = 0, Final residual = 0, No Iterations 0
diagonal:  Solving for rhoYi, Initial residual = 0, Final residual = 0, No Iterations 0
diagonal:  Solving for rhoE, Initial residual = 0, Final residual = 0, No Iterations 0
y line
436.149685978	436.149685978	0.862973665774	0.137026334226
y line
436.149685978	436.149685978	0.862973665774	0.137026334226
y line
436.149685978	436.149685978	0.862973665774	0.137026334226
ExecutionTime = 0.22 s  ClockTime = 0 s

Mean and max Courant Numbers = 0.0824923232039 0.0997543630028
deltaT = 3.89105058366e-10
Time = 1.00233e-06

diagonal:  Solving for rho, Initial residual = 0, Final residual = 0, No Iterations 0
diagonal:  Solving for rhoUx, Initial residual = 0, Final residual = 0, No Iterations 0
diagonal:  Solving for rhoUz, Initial residual = 0, Final residual = 0, No Iterations 0
diagonal:  Solving for rhoYi, Initial residual = 0, Final residual = 0, No Iterations 0
diagonal:  Solving for rhoE, Initial residual = 0, Final residual = 0, No Iterations 0
y line
436.257068184	436.257068184	0.862996720879	0.137003279121
y line
450.315635117	450.315635117	0.955404260769	0.0445957392315
y line
436.257068184	436.257068184	0.862996720879	0.137003279121
y line
450.315635117	450.315635117	0.955404260769	0.0445957392315
y line
436.257068184	436.257068184	0.862996720879	0.137003279121
y line
450.315635117	450.315635117	0.955404260769	0.0445957392315
ExecutionTime = 0.24 s  ClockTime = 0 s

Mean and max Courant Numbers = 0.0825099021874 0.099733120095
deltaT = 3.89105058366e-10
Time = 1.00272e-06

diagonal:  Solving for rho, Initial residual = 0, Final residual = 0, No Iterations 0
diagonal:  Solving for rhoUx, Initial residual = 0, Final residual = 0, No Iterations 0
diagonal:  Solving for rhoUz, Initial residual = 0, Final residual = 0, No Iterations 0
diagonal:  Solving for rhoYi, Initial residual = 0, Final residual = 0, No Iterations 0
diagonal:  Solving for rhoE, Initial residual = 0, Final residual = 0, No Iterations 0
ExecutionTime = 0.26 s  ClockTime = 0 s

Mean and max Courant Numbers = 0.082523981298 0.0997066562221
deltaT = 3.89105058366e-10
Time = 1.00311e-06

diagonal:  Solving for rho, Initial residual = 0, Final residual = 0, No Iterations 0
diagonal:  Solving for rhoUx, Initial residual = 0, Final residual = 0, No Iterations 0
diagonal:  Solving for rhoUz, Initial residual = 0, Final residual = 0, No Iterations 0
diagonal:  Solving for rhoYi, Initial residual = 0, Final residual = 0, No Iterations 0
diagonal:  Solving for rhoE, Initial residual = 0, Final residual = 0, No Iterations 0
ExecutionTime = 0.28 s  ClockTime = 0 s

Mean and max Courant Numbers = 0.0825410756206 0.0996751478049
deltaT = 3.89105058366e-10
Time = 1.0035e-06

diagonal:  Solving for rho, Initial residual = 0, Final residual = 0, No Iterations 0
diagonal:  Solving for rhoUx, Initial residual = 0, Final residual = 0, No Iterations 0
diagonal:  Solving for rhoUz, Initial residual = 0, Final residual = 0, No Iterations 0
diagonal:  Solving for rhoYi, Initial residual = 0, Final residual = 0, No Iterations 0
diagonal:  Solving for rhoE, Initial residual = 0, Final residual = 0, No Iterations 0
ExecutionTime = 0.3 s  ClockTime = 0 s

Mean and max Courant Numbers = 0.0825506374621 0.0996387904581
deltaT = 3.89105058366e-10
Time = 1.00389e-06

diagonal:  Solving for rho, Initial residual = 0, Final residual = 0, No Iterations 0
diagonal:  Solving for rhoUx, Initial residual = 0, Final residual = 0, No Iterations 0
diagonal:  Solving for rhoUz, Initial residual = 0, Final residual = 0, No Iterations 0
diagonal:  Solving for rhoYi, Initial residual = 0, Final residual = 0, No Iterations 0
diagonal:  Solving for rhoE, Initial residual = 0, Final residual = 0, No Iterations 0
ExecutionTime = 0.32 s  ClockTime = 0 s

Mean and max Courant Numbers = 0.0825640238763 0.0995977973521
deltaT = 3.90686786245e-10
Time = 1.00428e-06

diagonal:  Solving for rho, Initial residual = 0, Final residual = 0, No Iterations 0
diagonal:  Solving for rhoUx, Initial residual = 0, Final residual = 0, No Iterations 0
diagonal:  Solving for rhoUz, Initial residual = 0, Final residual = 0, No Iterations 0
diagonal:  Solving for rhoYi, Initial residual = 0, Final residual = 0, No Iterations 0
diagonal:  Solving for rhoE, Initial residual = 0, Final residual = 0, No Iterations 0
ExecutionTime = 0.34 s  ClockTime = 0 s

Mean and max Courant Numbers = 0.0829143021494 0.0999568966753
deltaT = 3.90686786245e-10
Time = 1.00467e-06

diagonal:  Solving for rho, Initial residual = 0, Final residual = 0, No Iterations 0
diagonal:  Solving for rhoUx, Initial residual = 0, Final residual = 0, No Iterations 0
diagonal:  Solving for rhoUz, Initial residual = 0, Final residual = 0, No Iterations 0
diagonal:  Solving for rhoYi, Initial residual = 0, Final residual = 0, No Iterations 0
diagonal:  Solving for rhoE, Initial residual = 0, Final residual = 0, No Iterations 0
ExecutionTime = 0.36 s  ClockTime = 0 s

Mean and max Courant Numbers = 0.0829321380606 0.0999069096219
deltaT = 3.90686786245e-10
Time = 1.00506e-06

diagonal:  Solving for rho, Initial residual = 0, Final residual = 0, No Iterations 0
diagonal:  Solving for rhoUx, Initial residual = 0, Final residual = 0, No Iterations 0
diagonal:  Solving for rhoUz, Initial residual = 0, Final residual = 0, No Iterations 0
diagonal:  Solving for rhoYi, Initial residual = 0, Final residual = 0, No Iterations 0
diagonal:  Solving for rhoE, Initial residual = 0, Final residual = 0, No Iterations 0
ExecutionTime = 0.37 s  ClockTime = 1 s

Mean and max Courant Numbers = 0.0829442790364 0.0998529613608
deltaT = 3.90686786245e-10
Time = 1.00545e-06

diagonal:  Solving for rho, Initial residual = 0, Final residual = 0, No Iterations 0
diagonal:  Solving for rhoUx, Initial residual = 0, Final residual = 0, No Iterations 0
diagonal:  Solving for rhoUz, Initial residual = 0, Final residual = 0, No Iterations 0
diagonal:  Solving for rhoYi, Initial residual = 0, Final residual = 0, No Iterations 0
diagonal:  Solving for rhoE, Initial residual = 0, Final residual = 0, No Iterations 0
ExecutionTime = 0.39 s  ClockTime = 1 s

Mean and max Courant Numbers = 0.0829544405152 0.0997953167192
deltaT = 3.90686786245e-10
Time = 1.00584e-06

diagonal:  Solving for rho, Initial residual = 0, Final residual = 0, No Iterations 0
diagonal:  Solving for rhoUx, Initial residual = 0, Final residual = 0, No Iterations 0
diagonal:  Solving for rhoUz, Initial residual = 0, Final residual = 0, No Iterations 0
diagonal:  Solving for rhoYi, Initial residual = 0, Final residual = 0, No Iterations 0
diagonal:  Solving for rhoE, Initial residual = 0, Final residual = 0, No Iterations 0
ExecutionTime = 0.41 s  ClockTime = 1 s

Mean and max Courant Numbers = 0.0829622589326 0.0997342467254
deltaT = 3.90686786245e-10
Time = 1.00624e-06

diagonal:  Solving for rho, Initial residual = 0, Final residual = 0, No Iterations 0
diagonal:  Solving for rhoUx, Initial residual = 0, Final residual = 0, No Iterations 0
diagonal:  Solving for rhoUz, Initial residual = 0, Final residual = 0, No Iterations 0
diagonal:  Solving for rhoYi, Initial residual = 0, Final residual = 0, No Iterations 0
diagonal:  Solving for rhoE, Initial residual = 0, Final residual = 0, No Iterations 0
y line
437.942900612	437.942900612	0.86317456568	0.13682543432
y line
437.942900612	437.942900612	0.86317456568	0.13682543432
y line
437.942900612	437.942900612	0.86317456568	0.13682543432
ExecutionTime = 0.43 s  ClockTime = 1 s

Mean and max Courant Numbers = 0.0829729129254 0.0996700271411
deltaT = 3.90686786245e-10
Time = 1.00663e-06

diagonal:  Solving for rho, Initial residual = 0, Final residual = 0, No Iterations 0
diagonal:  Solving for rhoUx, Initial residual = 0, Final residual = 0, No Iterations 0
diagonal:  Solving for rhoUz, Initial residual = 0, Final residual = 0, No Iterations 0
diagonal:  Solving for rhoYi, Initial residual = 0, Final residual = 0, No Iterations 0
diagonal:  Solving for rhoE, Initial residual = 0, Final residual = 0, No Iterations 0
ExecutionTime = 0.45 s  ClockTime = 1 s

Mean and max Courant Numbers = 0.0829819920773 0.0996029365006
deltaT = 3.90686786245e-10
Time = 1.00702e-06

diagonal:  Solving for rho, Initial residual = 0, Final residual = 0, No Iterations 0
diagonal:  Solving for rhoUx, Initial residual = 0, Final residual = 0, No Iterations 0
diagonal:  Solving for rhoUz, Initial residual = 0, Final residual = 0, No Iterations 0
diagonal:  Solving for rhoYi, Initial residual = 0, Final residual = 0, No Iterations 0
diagonal:  Solving for rhoE, Initial residual = 0, Final residual = 0, No Iterations 0
y line
464.951008161	464.951008161	0.993903105981	0.0060968940185
y line
464.951008161	464.951008161	0.993903105981	0.0060968940185
y line
464.951008161	464.951008161	0.993903105981	0.0060968940185
ExecutionTime = 0.47 s  ClockTime = 1 s

Mean and max Courant Numbers = 0.0829895778045 0.0995332525354
deltaT = 3.92335253698e-10
Time = 1.00741e-06

diagonal:  Solving for rho, Initial residual = 0, Final residual = 0, No Iterations 0
diagonal:  Solving for rhoUx, Initial residual = 0, Final residual = 0, No Iterations 0
diagonal:  Solving for rhoUz, Initial residual = 0, Final residual = 0, No Iterations 0
diagonal:  Solving for rhoYi, Initial residual = 0, Final residual = 0, No Iterations 0
diagonal:  Solving for rhoE, Initial residual = 0, Final residual = 0, No Iterations 0
ExecutionTime = 0.5 s  ClockTime = 1 s

Mean and max Courant Numbers = 0.0833454268248 0.0998806076132
deltaT = 3.92335253698e-10
Time = 1.0078e-06

diagonal:  Solving for rho, Initial residual = 0, Final residual = 0, No Iterations 0
diagonal:  Solving for rhoUx, Initial residual = 0, Final residual = 0, No Iterations 0
diagonal:  Solving for rhoUz, Initial residual = 0, Final residual = 0, No Iterations 0
diagonal:  Solving for rhoYi, Initial residual = 0, Final residual = 0, No Iterations 0
diagonal:  Solving for rhoE, Initial residual = 0, Final residual = 0, No Iterations 0
THvfctree_XrhoP, ISAT performance: nCall = 0, notCall = 0, nRetrieved = 0, nGrowth = 0, nAdd = 0
THvfctree_XrhoP, recent info: nCall = 0, nRetrieved = 0, nGrowth = 0, nAdd = 0
NtimeSteps: 20, Treedepth: 0, Mindepth: 0
maxNLeafs: 100
TEvfctree_XrhoP, ISAT performance: nCall = 0, notCall = 0, nRetrieved = 0, nGrowth = 0, nAdd = 0
TEvfctree_XrhoP, recent info: nCall = 0, nRetrieved = 0, nGrowth = 0, nAdd = 0
NtimeSteps: 20, Treedepth: 0, Mindepth: 0
maxNLeafs: 100
ExecutionTime = 0.52 s  ClockTime = 1 s

Mean and max Courant Numbers = 0.083349291012 0.0998059075006
deltaT = 3.92335253698e-10
Time = 1.00819e-06

diagonal:  Solving for rho, Initial residual = 0, Final residual = 0, No Iterations 0
diagonal:  Solving for rhoUx, Initial residual = 0, Final residual = 0, No Iterations 0
diagonal:  Solving for rhoUz, Initial residual = 0, Final residual = 0, No Iterations 0
diagonal:  Solving for rhoYi, Initial residual = 0, Final residual = 0, No Iterations 0
diagonal:  Solving for rhoE, Initial residual = 0, Final residual = 0, No Iterations 0
ExecutionTime = 0.57 s  ClockTime = 1 s

Mean and max Courant Numbers = 0.0833519715988 0.0997320314581
deltaT = 3.92335253698e-10
Time = 1.00859e-06

diagonal:  Solving for rho, Initial residual = 0, Final residual = 0, No Iterations 0
diagonal:  Solving for rhoUx, Initial residual = 0, Final residual = 0, No Iterations 0
diagonal:  Solving for rhoUz, Initial residual = 0, Final residual = 0, No Iterations 0
diagonal:  Solving for rhoYi, Initial residual = 0, Final residual = 0, No Iterations 0
diagonal:  Solving for rhoE, Initial residual = 0, Final residual = 0, No Iterations 0
ExecutionTime = 0.62 s  ClockTime = 1 s

Mean and max Courant Numbers = 0.0833522652971 0.0997869928135
deltaT = 3.92335253698e-10
Time = 1.00898e-06

diagonal:  Solving for rho, Initial residual = 0, Final residual = 0, No Iterations 0
diagonal:  Solving for rhoUx, Initial residual = 0, Final residual = 0, No Iterations 0
diagonal:  Solving for rhoUz, Initial residual = 0, Final residual = 0, No Iterations 0
diagonal:  Solving for rhoYi, Initial residual = 0, Final residual = 0, No Iterations 0
diagonal:  Solving for rhoE, Initial residual = 0, Final residual = 0, No Iterations 0
ExecutionTime = 0.67 s  ClockTime = 1 s

Mean and max Courant Numbers = 0.083352116347 0.0998396672317
deltaT = 3.92335253698e-10
Time = 1.00937e-06

diagonal:  Solving for rho, Initial residual = 0, Final residual = 0, No Iterations 0
diagonal:  Solving for rhoUx, Initial residual = 0, Final residual = 0, No Iterations 0
diagonal:  Solving for rhoUz, Initial residual = 0, Final residual = 0, No Iterations 0
diagonal:  Solving for rhoYi, Initial residual = 0, Final residual = 0, No Iterations 0
diagonal:  Solving for rhoE, Initial residual = 0, Final residual = 0, No Iterations 0
y line
464.564652755	464.564652755	0.994112732599	0.00588726740129
y line
464.564652755	464.564652755	0.994112732599	0.00588726740129
y line
464.564652755	464.564652755	0.994112732599	0.00588726740129
ExecutionTime = 0.72 s  ClockTime = 1 s

Mean and max Courant Numbers = 0.0833524244422 0.0998898330711
deltaT = 3.92335253698e-10
Time = 1.00976e-06

diagonal:  Solving for rho, Initial residual = 0, Final residual = 0, No Iterations 0
diagonal:  Solving for rhoUx, Initial residual = 0, Final residual = 0, No Iterations 0
diagonal:  Solving for rhoUz, Initial residual = 0, Final residual = 0, No Iterations 0
diagonal:  Solving for rhoYi, Initial residual = 0, Final residual = 0, No Iterations 0
diagonal:  Solving for rhoE, Initial residual = 0, Final residual = 0, No Iterations 0
ExecutionTime = 0.77 s  ClockTime = 1 s

Mean and max Courant Numbers = 0.083349804522 0.0999372747182
deltaT = 3.92335253698e-10
Time = 1.01016e-06

diagonal:  Solving for rho, Initial residual = 0, Final residual = 0, No Iterations 0
diagonal:  Solving for rhoUx, Initial residual = 0, Final residual = 0, No Iterations 0
diagonal:  Solving for rhoUz, Initial residual = 0, Final residual = 0, No Iterations 0
diagonal:  Solving for rhoYi, Initial residual = 0, Final residual = 0, No Iterations 0
diagonal:  Solving for rhoE, Initial residual = 0, Final residual = 0, No Iterations 0
ExecutionTime = 0.81 s  ClockTime = 1 s

Mean and max Courant Numbers = 0.0833449751167 0.0999817939645
deltaT = 3.92335253698e-10
Time = 1.01055e-06

diagonal:  Solving for rho, Initial residual = 0, Final residual = 0, No Iterations 0
diagonal:  Solving for rhoUx, Initial residual = 0, Final residual = 0, No Iterations 0
diagonal:  Solving for rhoUz, Initial residual = 0, Final residual = 0, No Iterations 0
diagonal:  Solving for rhoYi, Initial residual = 0, Final residual = 0, No Iterations 0
diagonal:  Solving for rhoE, Initial residual = 0, Final residual = 0, No Iterations 0
ExecutionTime = 0.84 s  ClockTime = 1 s

Mean and max Courant Numbers = 0.0833381633623 0.100023212329
deltaT = 3.90621999315e-10
Time = 1.01094e-06

diagonal:  Solving for rho, Initial residual = 0, Final residual = 0, No Iterations 0
diagonal:  Solving for rhoUx, Initial residual = 0, Final residual = 0, No Iterations 0
diagonal:  Solving for rhoUz, Initial residual = 0, Final residual = 0, No Iterations 0
diagonal:  Solving for rhoYi, Initial residual = 0, Final residual = 0, No Iterations 0
diagonal:  Solving for rhoE, Initial residual = 0, Final residual = 0, No Iterations 0
ExecutionTime = 0.86 s  ClockTime = 1 s

Mean and max Courant Numbers = 0.0829655143111 0.099624254752
deltaT = 3.90621999315e-10
Time = 1.01133e-06

diagonal:  Solving for rho, Initial residual = 0, Final residual = 0, No Iterations 0
diagonal:  Solving for rhoUx, Initial residual = 0, Final residual = 0, No Iterations 0
diagonal:  Solving for rhoUz, Initial residual = 0, Final residual = 0, No Iterations 0
diagonal:  Solving for rhoYi, Initial residual = 0, Final residual = 0, No Iterations 0
diagonal:  Solving for rhoE, Initial residual = 0, Final residual = 0, No Iterations 0
ExecutionTime = 0.88 s  ClockTime = 1 s

Mean and max Courant Numbers = 0.0829488115017 0.0996587221419
deltaT = 3.90621999315e-10
Time = 1.01172e-06

diagonal:  Solving for rho, Initial residual = 0, Final residual = 0, No Iterations 0
diagonal:  Solving for rhoUx, Initial residual = 0, Final residual = 0, No Iterations 0
diagonal:  Solving for rhoUz, Initial residual = 0, Final residual = 0, No Iterations 0
diagonal:  Solving for rhoYi, Initial residual = 0, Final residual = 0, No Iterations 0
diagonal:  Solving for rhoE, Initial residual = 0, Final residual = 0, No Iterations 0
ExecutionTime = 0.9 s  ClockTime = 1 s

Mean and max Courant Numbers = 0.0829379341913 0.0996897117282
deltaT = 3.90621999315e-10
Time = 1.01211e-06

diagonal:  Solving for rho, Initial residual = 0, Final residual = 0, No Iterations 0
diagonal:  Solving for rhoUx, Initial residual = 0, Final residual = 0, No Iterations 0
diagonal:  Solving for rhoUz, Initial residual = 0, Final residual = 0, No Iterations 0
diagonal:  Solving for rhoYi, Initial residual = 0, Final residual = 0, No Iterations 0
diagonal:  Solving for rhoE, Initial residual = 0, Final residual = 0, No Iterations 0
ExecutionTime = 0.92 s  ClockTime = 1 s

Mean and max Courant Numbers = 0.0829289545612 0.099717122324
deltaT = 3.90621999315e-10
Time = 1.0125e-06

diagonal:  Solving for rho, Initial residual = 0, Final residual = 0, No Iterations 0
diagonal:  Solving for rhoUx, Initial residual = 0, Final residual = 0, No Iterations 0
diagonal:  Solving for rhoUz, Initial residual = 0, Final residual = 0, No Iterations 0
diagonal:  Solving for rhoYi, Initial residual = 0, Final residual = 0, No Iterations 0
diagonal:  Solving for rhoE, Initial residual = 0, Final residual = 0, No Iterations 0
ExecutionTime = 0.94 s  ClockTime = 1 s

Mean and max Courant Numbers = 0.0829180476996 0.0997408713503
deltaT = 3.90621999315e-10
Time = 1.01289e-06

diagonal:  Solving for rho, Initial residual = 0, Final residual = 0, No Iterations 0
diagonal:  Solving for rhoUx, Initial residual = 0, Final residual = 0, No Iterations 0
diagonal:  Solving for rhoUz, Initial residual = 0, Final residual = 0, No Iterations 0
diagonal:  Solving for rhoYi, Initial residual = 0, Final residual = 0, No Iterations 0
diagonal:  Solving for rhoE, Initial residual = 0, Final residual = 0, No Iterations 0
ExecutionTime = 0.98 s  ClockTime = 1 s

Mean and max Courant Numbers = 0.0829050405676 0.0997608945653
deltaT = 3.90621999315e-10
Time = 1.01328e-06

diagonal:  Solving for rho, Initial residual = 0, Final residual = 0, No Iterations 0
diagonal:  Solving for rhoUx, Initial residual = 0, Final residual = 0, No Iterations 0
diagonal:  Solving for rhoUz, Initial residual = 0, Final residual = 0, No Iterations 0
diagonal:  Solving for rhoYi, Initial residual = 0, Final residual = 0, No Iterations 0
diagonal:  Solving for rhoE, Initial residual = 0, Final residual = 0, No Iterations 0
ExecutionTime = 1.03 s  ClockTime = 1 s

Mean and max Courant Numbers = 0.0828899923711 0.0997771463584
deltaT = 3.90621999315e-10
Time = 1.01367e-06

diagonal:  Solving for rho, Initial residual = 0, Final residual = 0, No Iterations 0
diagonal:  Solving for rhoUx, Initial residual = 0, Final residual = 0, No Iterations 0
diagonal:  Solving for rhoUz, Initial residual = 0, Final residual = 0, No Iterations 0
diagonal:  Solving for rhoYi, Initial residual = 0, Final residual = 0, No Iterations 0
diagonal:  Solving for rhoE, Initial residual = 0, Final residual = 0, No Iterations 0
y line
464.749917453	464.749917453	0.994021897146	0.00597810285418
y line
464.749917453	464.749917453	0.994021897146	0.00597810285418
y line
464.749917453	464.749917453	0.994021897146	0.00597810285418
ExecutionTime = 1.07 s  ClockTime = 1 s

Mean and max Courant Numbers = 0.0828751913706 0.0997895994672
deltaT = 3.90621999315e-10
Time = 1.01406e-06

diagonal:  Solving for rho, Initial residual = 0, Final residual = 0, No Iterations 0
diagonal:  Solving for rhoUx, Initial residual = 0, Final residual = 0, No Iterations 0
diagonal:  Solving for rhoUz, Initial residual = 0, Final residual = 0, No Iterations 0
diagonal:  Solving for rhoYi, Initial residual = 0, Final residual = 0, No Iterations 0
diagonal:  Solving for rhoE, Initial residual = 0, Final residual = 0, No Iterations 0
ExecutionTime = 1.11 s  ClockTime = 1 s

Mean and max Courant Numbers = 0.0828587434954 0.0998035984435
deltaT = 3.90621999315e-10
Time = 1.01445e-06

diagonal:  Solving for rho, Initial residual = 0, Final residual = 0, No Iterations 0
diagonal:  Solving for rhoUx, Initial residual = 0, Final residual = 0, No Iterations 0
diagonal:  Solving for rhoUz, Initial residual = 0, Final residual = 0, No Iterations 0
diagonal:  Solving for rhoYi, Initial residual = 0, Final residual = 0, No Iterations 0
diagonal:  Solving for rhoE, Initial residual = 0, Final residual = 0, No Iterations 0
ExecutionTime = 1.13 s  ClockTime = 1 s

Mean and max Courant Numbers = 0.0828448116753 0.0998331801257
deltaT = 3.90621999315e-10
Time = 1.01484e-06

diagonal:  Solving for rho, Initial residual = 0, Final residual = 0, No Iterations 0
diagonal:  Solving for rhoUx, Initial residual = 0, Final residual = 0, No Iterations 0
diagonal:  Solving for rhoUz, Initial residual = 0, Final residual = 0, No Iterations 0
diagonal:  Solving for rhoYi, Initial residual = 0, Final residual = 0, No Iterations 0
diagonal:  Solving for rhoE, Initial residual = 0, Final residual = 0, No Iterations 0
ExecutionTime = 1.15 s  ClockTime = 1 s

Mean and max Courant Numbers = 0.0828336477926 0.0998601874151
deltaT = 3.90621999315e-10
Time = 1.01524e-06

diagonal:  Solving for rho, Initial residual = 0, Final residual = 0, No Iterations 0
diagonal:  Solving for rhoUx, Initial residual = 0, Final residual = 0, No Iterations 0
diagonal:  Solving for rhoUz, Initial residual = 0, Final residual = 0, No Iterations 0
diagonal:  Solving for rhoYi, Initial residual = 0, Final residual = 0, No Iterations 0
diagonal:  Solving for rhoE, Initial residual = 0, Final residual = 0, No Iterations 0
ExecutionTime = 1.18 s  ClockTime = 1 s

Mean and max Courant Numbers = 0.0828216025142 0.0998845856879
deltaT = 3.90621999315e-10
Time = 1.01563e-06

diagonal:  Solving for rho, Initial residual = 0, Final residual = 0, No Iterations 0
diagonal:  Solving for rhoUx, Initial residual = 0, Final residual = 0, No Iterations 0
diagonal:  Solving for rhoUz, Initial residual = 0, Final residual = 0, No Iterations 0
diagonal:  Solving for rhoYi, Initial residual = 0, Final residual = 0, No Iterations 0
diagonal:  Solving for rhoE, Initial residual = 0, Final residual = 0, No Iterations 0
THvfctree_XrhoP, ISAT performance: nCall = 0, notCall = 0, nRetrieved = 0, nGrowth = 0, nAdd = 0
THvfctree_XrhoP, recent info: nCall = 0, nRetrieved = 0, nGrowth = 0, nAdd = 0
NtimeSteps: 40, Treedepth: 0, Mindepth: 0
maxNLeafs: 100
TEvfctree_XrhoP, ISAT performance: nCall = 0, notCall = 0, nRetrieved = 0, nGrowth = 0, nAdd = 0
TEvfctree_XrhoP, recent info: nCall = 0, nRetrieved = 0, nGrowth = 0, nAdd = 0
NtimeSteps: 40, Treedepth: 0, Mindepth: 0
maxNLeafs: 100
ExecutionTime = 1.2 s  ClockTime = 1 s

Mean and max Courant Numbers = 0.0828087620156 0.0999063445437
deltaT = 3.90621999315e-10
Time = 1.01602e-06

diagonal:  Solving for rho, Initial residual = 0, Final residual = 0, No Iterations 0
diagonal:  Solving for rhoUx, Initial residual = 0, Final residual = 0, No Iterations 0
diagonal:  Solving for rhoUz, Initial residual = 0, Final residual = 0, No Iterations 0
diagonal:  Solving for rhoYi, Initial residual = 0, Final residual = 0, No Iterations 0
diagonal:  Solving for rhoE, Initial residual = 0, Final residual = 0, No Iterations 0
ExecutionTime = 1.22 s  ClockTime = 1 s

Mean and max Courant Numbers = 0.0827985463982 0.0999254370671
deltaT = 3.90621999315e-10
Time = 1.01641e-06

diagonal:  Solving for rho, Initial residual = 0, Final residual = 0, No Iterations 0
diagonal:  Solving for rhoUx, Initial residual = 0, Final residual = 0, No Iterations 0
diagonal:  Solving for rhoUz, Initial residual = 0, Final residual = 0, No Iterations 0
diagonal:  Solving for rhoYi, Initial residual = 0, Final residual = 0, No Iterations 0
diagonal:  Solving for rhoE, Initial residual = 0, Final residual = 0, No Iterations 0
ExecutionTime = 1.24 s  ClockTime = 1 s

Mean and max Courant Numbers = 0.0827877136159 0.0999418409931
deltaT = 3.90621999315e-10
Time = 1.0168e-06

diagonal:  Solving for rho, Initial residual = 0, Final residual = 0, No Iterations 0
diagonal:  Solving for rhoUx, Initial residual = 0, Final residual = 0, No Iterations 0
diagonal:  Solving for rhoUz, Initial residual = 0, Final residual = 0, No Iterations 0
diagonal:  Solving for rhoYi, Initial residual = 0, Final residual = 0, No Iterations 0
diagonal:  Solving for rhoE, Initial residual = 0, Final residual = 0, No Iterations 0
ExecutionTime = 1.26 s  ClockTime = 1 s

Mean and max Courant Numbers = 0.0827782990598 0.0999555370737
deltaT = 3.90621999315e-10
Time = 1.01719e-06

diagonal:  Solving for rho, Initial residual = 0, Final residual = 0, No Iterations 0
diagonal:  Solving for rhoUx, Initial residual = 0, Final residual = 0, No Iterations 0
diagonal:  Solving for rhoUz, Initial residual = 0, Final residual = 0, No Iterations 0
diagonal:  Solving for rhoYi, Initial residual = 0, Final residual = 0, No Iterations 0
diagonal:  Solving for rhoE, Initial residual = 0, Final residual = 0, No Iterations 0
ExecutionTime = 1.28 s  ClockTime = 1 s

Mean and max Courant Numbers = 0.0827733661709 0.0999665088392
deltaT = 3.90621999315e-10
Time = 1.01758e-06

diagonal:  Solving for rho, Initial residual = 0, Final residual = 0, No Iterations 0
diagonal:  Solving for rhoUx, Initial residual = 0, Final residual = 0, No Iterations 0
diagonal:  Solving for rhoUz, Initial residual = 0, Final residual = 0, No Iterations 0
diagonal:  Solving for rhoYi, Initial residual = 0, Final residual = 0, No Iterations 0
diagonal:  Solving for rhoE, Initial residual = 0, Final residual = 0, No Iterations 0
y line
466.023220888	466.023220888	0.994158523161	0.00584147683939
y line
466.023220888	466.023220888	0.994158523161	0.00584147683939
y line
466.023220888	466.023220888	0.994158523161	0.00584147683939
ExecutionTime = 1.31 s  ClockTime = 1 s

Mean and max Courant Numbers = 0.082768726364 0.0999747439086
deltaT = 3.90621999315e-10
Time = 1.01797e-06

diagonal:  Solving for rho, Initial residual = 0, Final residual = 0, No Iterations 0
diagonal:  Solving for rhoUx, Initial residual = 0, Final residual = 0, No Iterations 0
diagonal:  Solving for rhoUz, Initial residual = 0, Final residual = 0, No Iterations 0
diagonal:  Solving for rhoYi, Initial residual = 0, Final residual = 0, No Iterations 0
diagonal:  Solving for rhoE, Initial residual = 0, Final residual = 0, No Iterations 0
ExecutionTime = 1.33 s  ClockTime = 1 s

Mean and max Courant Numbers = 0.0827638535384 0.0999802322305
deltaT = 3.90621999315e-10
Time = 1.01836e-06

diagonal:  Solving for rho, Initial residual = 0, Final residual = 0, No Iterations 0
diagonal:  Solving for rhoUx, Initial residual = 0, Final residual = 0, No Iterations 0
diagonal:  Solving for rhoUz, Initial residual = 0, Final residual = 0, No Iterations 0
diagonal:  Solving for rhoYi, Initial residual = 0, Final residual = 0, No Iterations 0
diagonal:  Solving for rhoE, Initial residual = 0, Final residual = 0, No Iterations 0
ExecutionTime = 1.35 s  ClockTime = 2 s

Mean and max Courant Numbers = 0.0827615754042 0.0999829663632
deltaT = 3.90621999315e-10
Time = 1.01875e-06

diagonal:  Solving for rho, Initial residual = 0, Final residual = 0, No Iterations 0
diagonal:  Solving for rhoUx, Initial residual = 0, Final residual = 0, No Iterations 0
diagonal:  Solving for rhoUz, Initial residual = 0, Final residual = 0, No Iterations 0
diagonal:  Solving for rhoYi, Initial residual = 0, Final residual = 0, No Iterations 0
diagonal:  Solving for rhoE, Initial residual = 0, Final residual = 0, No Iterations 0
ExecutionTime = 1.37 s  ClockTime = 2 s

Mean and max Courant Numbers = 0.0827614132433 0.0999833140719
deltaT = 3.90621999315e-10
Time = 1.01914e-06

diagonal:  Solving for rho, Initial residual = 0, Final residual = 0, No Iterations 0
diagonal:  Solving for rhoUx, Initial residual = 0, Final residual = 0, No Iterations 0
diagonal:  Solving for rhoUz, Initial residual = 0, Final residual = 0, No Iterations 0
diagonal:  Solving for rhoYi, Initial residual = 0, Final residual = 0, No Iterations 0
diagonal:  Solving for rhoE, Initial residual = 0, Final residual = 0, No Iterations 0
ExecutionTime = 1.39 s  ClockTime = 2 s

Mean and max Courant Numbers = 0.0827607355478 0.0999812506241
deltaT = 3.90621999315e-10
Time = 1.01953e-06

diagonal:  Solving for rho, Initial residual = 0, Final residual = 0, No Iterations 0
diagonal:  Solving for rhoUx, Initial residual = 0, Final residual = 0, No Iterations 0
diagonal:  Solving for rhoUz, Initial residual = 0, Final residual = 0, No Iterations 0
diagonal:  Solving for rhoYi, Initial residual = 0, Final residual = 0, No Iterations 0
diagonal:  Solving for rhoE, Initial residual = 0, Final residual = 0, No Iterations 0
ExecutionTime = 1.41 s  ClockTime = 2 s

Mean and max Courant Numbers = 0.0827632726881 0.0999764333385
deltaT = 3.90621999315e-10
Time = 1.01992e-06

diagonal:  Solving for rho, Initial residual = 0, Final residual = 0, No Iterations 0
diagonal:  Solving for rhoUx, Initial residual = 0, Final residual = 0, No Iterations 0
diagonal:  Solving for rhoUz, Initial residual = 0, Final residual = 0, No Iterations 0
diagonal:  Solving for rhoYi, Initial residual = 0, Final residual = 0, No Iterations 0
diagonal:  Solving for rhoE, Initial residual = 0, Final residual = 0, No Iterations 0
y line
465.639194063	465.639194063	0.99383674969	0.00616325030954
y line
465.639194063	465.639194063	0.99383674969	0.00616325030954
y line
465.639194063	465.639194063	0.99383674969	0.00616325030954
ExecutionTime = 1.43 s  ClockTime = 2 s

Mean and max Courant Numbers = 0.0827687708593 0.0999927134359
deltaT = 3.90621999315e-10
Time = 1.02031e-06

diagonal:  Solving for rho, Initial residual = 0, Final residual = 0, No Iterations 0
diagonal:  Solving for rhoUx, Initial residual = 0, Final residual = 0, No Iterations 0
diagonal:  Solving for rhoUz, Initial residual = 0, Final residual = 0, No Iterations 0
diagonal:  Solving for rhoYi, Initial residual = 0, Final residual = 0, No Iterations 0
diagonal:  Solving for rhoE, Initial residual = 0, Final residual = 0, No Iterations 0
y line
455.209330234	455.209330234	0.969977884344	0.030022115656
y line
455.209330234	455.209330234	0.969977884344	0.030022115656
y line
455.209330234	455.209330234	0.969977884344	0.030022115656
ExecutionTime = 1.45 s  ClockTime = 2 s

Mean and max Courant Numbers = 0.08277514994 0.100017374933
deltaT = 3.88716526147e-10
Time = 1.0207e-06

diagonal:  Solving for rho, Initial residual = 0, Final residual = 0, No Iterations 0
diagonal:  Solving for rhoUx, Initial residual = 0, Final residual = 0, No Iterations 0
diagonal:  Solving for rhoUz, Initial residual = 0, Final residual = 0, No Iterations 0
diagonal:  Solving for rhoYi, Initial residual = 0, Final residual = 0, No Iterations 0
diagonal:  Solving for rhoE, Initial residual = 0, Final residual = 0, No Iterations 0
ExecutionTime = 1.47 s  ClockTime = 2 s

Mean and max Courant Numbers = 0.082376284841 0.0995507263124
deltaT = 3.88716526147e-10
Time = 1.02109e-06

diagonal:  Solving for rho, Initial residual = 0, Final residual = 0, No Iterations 0
diagonal:  Solving for rhoUx, Initial residual = 0, Final residual = 0, No Iterations 0
diagonal:  Solving for rhoUz, Initial residual = 0, Final residual = 0, No Iterations 0
diagonal:  Solving for rhoYi, Initial residual = 0, Final residual = 0, No Iterations 0
diagonal:  Solving for rhoE, Initial residual = 0, Final residual = 0, No Iterations 0
ExecutionTime = 1.49 s  ClockTime = 2 s

Mean and max Courant Numbers = 0.082383220404 0.0995686862235
deltaT = 3.88716526147e-10
Time = 1.02148e-06

diagonal:  Solving for rho, Initial residual = 0, Final residual = 0, No Iterations 0
diagonal:  Solving for rhoUx, Initial residual = 0, Final residual = 0, No Iterations 0
diagonal:  Solving for rhoUz, Initial residual = 0, Final residual = 0, No Iterations 0
diagonal:  Solving for rhoYi, Initial residual = 0, Final residual = 0, No Iterations 0
diagonal:  Solving for rhoE, Initial residual = 0, Final residual = 0, No Iterations 0
ExecutionTime = 1.51 s  ClockTime = 2 s

Mean and max Courant Numbers = 0.0823894951421 0.0995832577712
deltaT = 3.88716526147e-10
Time = 1.02187e-06

diagonal:  Solving for rho, Initial residual = 0, Final residual = 0, No Iterations 0
diagonal:  Solving for rhoUx, Initial residual = 0, Final residual = 0, No Iterations 0
diagonal:  Solving for rhoUz, Initial residual = 0, Final residual = 0, No Iterations 0
diagonal:  Solving for rhoYi, Initial residual = 0, Final residual = 0, No Iterations 0
diagonal:  Solving for rhoE, Initial residual = 0, Final residual = 0, No Iterations 0
ExecutionTime = 1.53 s  ClockTime = 2 s

Mean and max Courant Numbers = 0.0823992519126 0.0995943430432
deltaT = 3.88716526147e-10
Time = 1.02226e-06

diagonal:  Solving for rho, Initial residual = 0, Final residual = 0, No Iterations 0
diagonal:  Solving for rhoUx, Initial residual = 0, Final residual = 0, No Iterations 0
diagonal:  Solving for rhoUz, Initial residual = 0, Final residual = 0, No Iterations 0
diagonal:  Solving for rhoYi, Initial residual = 0, Final residual = 0, No Iterations 0
diagonal:  Solving for rhoE, Initial residual = 0, Final residual = 0, No Iterations 0
ExecutionTime = 1.55 s  ClockTime = 2 s

Mean and max Courant Numbers = 0.0824110713322 0.0996018535977
deltaT = 3.88716526147e-10
Time = 1.02265e-06

diagonal:  Solving for rho, Initial residual = 0, Final residual = 0, No Iterations 0
diagonal:  Solving for rhoUx, Initial residual = 0, Final residual = 0, No Iterations 0
diagonal:  Solving for rhoUz, Initial residual = 0, Final residual = 0, No Iterations 0
diagonal:  Solving for rhoYi, Initial residual = 0, Final residual = 0, No Iterations 0
diagonal:  Solving for rhoE, Initial residual = 0, Final residual = 0, No Iterations 0
ExecutionTime = 1.57 s  ClockTime = 2 s

Mean and max Courant Numbers = 0.0824210001727 0.0996057103672
deltaT = 3.88716526147e-10
Time = 1.02303e-06

diagonal:  Solving for rho, Initial residual = 0, Final residual = 0, No Iterations 0
diagonal:  Solving for rhoUx, Initial residual = 0, Final residual = 0, No Iterations 0
diagonal:  Solving for rhoUz, Initial residual = 0, Final residual = 0, No Iterations 0
diagonal:  Solving for rhoYi, Initial residual = 0, Final residual = 0, No Iterations 0
diagonal:  Solving for rhoE, Initial residual = 0, Final residual = 0, No Iterations 0
ExecutionTime = 1.59 s  ClockTime = 2 s

Mean and max Courant Numbers = 0.0824328851275 0.0996058439945
deltaT = 3.88716526147e-10
Time = 1.02342e-06

diagonal:  Solving for rho, Initial residual = 0, Final residual = 0, No Iterations 0
diagonal:  Solving for rhoUx, Initial residual = 0, Final residual = 0, No Iterations 0
diagonal:  Solving for rhoUz, Initial residual = 0, Final residual = 0, No Iterations 0
diagonal:  Solving for rhoYi, Initial residual = 0, Final residual = 0, No Iterations 0
diagonal:  Solving for rhoE, Initial residual = 0, Final residual = 0, No Iterations 0
THvfctree_XrhoP, ISAT performance: nCall = 0, notCall = 0, nRetrieved = 0, nGrowth = 0, nAdd = 0
THvfctree_XrhoP, recent info: nCall = 0, nRetrieved = 0, nGrowth = 0, nAdd = 0
NtimeSteps: 60, Treedepth: 0, Mindepth: 0
maxNLeafs: 100
TEvfctree_XrhoP, ISAT performance: nCall = 0, notCall = 0, nRetrieved = 0, nGrowth = 0, nAdd = 0
TEvfctree_XrhoP, recent info: nCall = 0, nRetrieved = 0, nGrowth = 0, nAdd = 0
NtimeSteps: 60, Treedepth: 0, Mindepth: 0
maxNLeafs: 100
TPvfctree_XErho, ISAT performance: nCall = 0, notCall = 0, nRetrieved = 0, nGrowth = 0, nAdd = 0
TPvfctree_XErho, recent info: nCall = 0, nRetrieved = 0, nGrowth = 0, nAdd = 0
NtimeSteps: 60, Treedepth: 0, Mindepth: 0
maxNLeafs: 5000
ExecutionTime = 1.61 s  ClockTime = 2 s

Mean and max Courant Numbers = 0.0824440141838 0.09960219492
deltaT = 3.88716526147e-10
Time = 1.02381e-06

diagonal:  Solving for rho, Initial residual = 0, Final residual = 0, No Iterations 0
diagonal:  Solving for rhoUx, Initial residual = 0, Final residual = 0, No Iterations 0
diagonal:  Solving for rhoUz, Initial residual = 0, Final residual = 0, No Iterations 0
diagonal:  Solving for rhoYi, Initial residual = 0, Final residual = 0, No Iterations 0
diagonal:  Solving for rhoE, Initial residual = 0, Final residual = 0, No Iterations 0
ExecutionTime = 1.63 s  ClockTime = 2 s

Mean and max Courant Numbers = 0.0824560777503 0.0995947144683
deltaT = 3.88716526147e-10
Time = 1.0242e-06

diagonal:  Solving for rho, Initial residual = 0, Final residual = 0, No Iterations 0
diagonal:  Solving for rhoUx, Initial residual = 0, Final residual = 0, No Iterations 0
diagonal:  Solving for rhoUz, Initial residual = 0, Final residual = 0, No Iterations 0
diagonal:  Solving for rhoYi, Initial residual = 0, Final residual = 0, No Iterations 0
diagonal:  Solving for rhoE, Initial residual = 0, Final residual = 0, No Iterations 0
ExecutionTime = 1.65 s  ClockTime = 2 s

Mean and max Courant Numbers = 0.082468850325 0.0995833657775
deltaT = 3.88716526147e-10
Time = 1.02459e-06

diagonal:  Solving for rho, Initial residual = 0, Final residual = 0, No Iterations 0
diagonal:  Solving for rhoUx, Initial residual = 0, Final residual = 0, No Iterations 0
diagonal:  Solving for rhoUz, Initial residual = 0, Final residual = 0, No Iterations 0
diagonal:  Solving for rhoYi, Initial residual = 0, Final residual = 0, No Iterations 0
diagonal:  Solving for rhoE, Initial residual = 0, Final residual = 0, No Iterations 0
ExecutionTime = 1.67 s  ClockTime = 2 s

Mean and max Courant Numbers = 0.0824821207686 0.0995681259019
deltaT = 3.88716526147e-10
Time = 1.02498e-06

diagonal:  Solving for rho, Initial residual = 0, Final residual = 0, No Iterations 0
diagonal:  Solving for rhoUx, Initial residual = 0, Final residual = 0, No Iterations 0
diagonal:  Solving for rhoUz, Initial residual = 0, Final residual = 0, No Iterations 0
diagonal:  Solving for rhoYi, Initial residual = 0, Final residual = 0, No Iterations 0
diagonal:  Solving for rhoE, Initial residual = 0, Final residual = 0, No Iterations 0
ExecutionTime = 1.69 s  ClockTime = 2 s

Mean and max Courant Numbers = 0.0824910870565 0.0995489865773
deltaT = 3.88716526147e-10
Time = 1.02537e-06

diagonal:  Solving for rho, Initial residual = 0, Final residual = 0, No Iterations 0
diagonal:  Solving for rhoUx, Initial residual = 0, Final residual = 0, No Iterations 0
diagonal:  Solving for rhoUz, Initial residual = 0, Final residual = 0, No Iterations 0
diagonal:  Solving for rhoYi, Initial residual = 0, Final residual = 0, No Iterations 0
diagonal:  Solving for rhoE, Initial residual = 0, Final residual = 0, No Iterations 0
ExecutionTime = 1.71 s  ClockTime = 2 s

Mean and max Courant Numbers = 0.0825017373846 0.0995259557741
deltaT = 3.88716526147e-10
Time = 1.02576e-06

diagonal:  Solving for rho, Initial residual = 0, Final residual = 0, No Iterations 0
diagonal:  Solving for rhoUx, Initial residual = 0, Final residual = 0, No Iterations 0
diagonal:  Solving for rhoUz, Initial residual = 0, Final residual = 0, No Iterations 0
diagonal:  Solving for rhoYi, Initial residual = 0, Final residual = 0, No Iterations 0
diagonal:  Solving for rhoE, Initial residual = 0, Final residual = 0, No Iterations 0
y line
465.634827864	465.634827864	0.994025504475	0.00597449552516
y line
465.634827864	465.634827864	0.994025504475	0.00597449552516
y line
465.634827864	465.634827864	0.994025504475	0.00597449552516
ExecutionTime = 1.73 s  ClockTime = 2 s

Mean and max Courant Numbers = 0.0825104405099 0.0994990591396
deltaT = 3.88716526147e-10
Time = 1.02614e-06

diagonal:  Solving for rho, Initial residual = 0, Final residual = 0, No Iterations 0
diagonal:  Solving for rhoUx, Initial residual = 0, Final residual = 0, No Iterations 0
diagonal:  Solving for rhoUz, Initial residual = 0, Final residual = 0, No Iterations 0
diagonal:  Solving for rhoYi, Initial residual = 0, Final residual = 0, No Iterations 0
diagonal:  Solving for rhoE, Initial residual = 0, Final residual = 0, No Iterations 0
ExecutionTime = 1.75 s  ClockTime = 2 s

Mean and max Courant Numbers = 0.0825188166248 0.0994683402636
deltaT = 3.90773227344e-10
Time = 1.02653e-06

diagonal:  Solving for rho, Initial residual = 0, Final residual = 0, No Iterations 0
diagonal:  Solving for rhoUx, Initial residual = 0, Final residual = 0, No Iterations 0
diagonal:  Solving for rhoUz, Initial residual = 0, Final residual = 0, No Iterations 0
diagonal:  Solving for rhoYi, Initial residual = 0, Final residual = 0, No Iterations 0
diagonal:  Solving for rhoE, Initial residual = 0, Final residual = 0, No Iterations 0
ExecutionTime = 1.77 s  ClockTime = 2 s

Mean and max Courant Numbers = 0.0829637100906 0.0999597859905
deltaT = 3.90773227344e-10
Time = 1.02693e-06

diagonal:  Solving for rho, Initial residual = 0, Final residual = 0, No Iterations 0
diagonal:  Solving for rhoUx, Initial residual = 0, Final residual = 0, No Iterations 0
diagonal:  Solving for rhoUz, Initial residual = 0, Final residual = 0, No Iterations 0
diagonal:  Solving for rhoYi, Initial residual = 0, Final residual = 0, No Iterations 0
diagonal:  Solving for rhoE, Initial residual = 0, Final residual = 0, No Iterations 0
ExecutionTime = 1.79 s  ClockTime = 2 s

Mean and max Courant Numbers = 0.0829695122605 0.0999212128426
deltaT = 3.90773227344e-10
Time = 1.02732e-06

diagonal:  Solving for rho, Initial residual = 0, Final residual = 0, No Iterations 0
diagonal:  Solving for rhoUx, Initial residual = 0, Final residual = 0, No Iterations 0
diagonal:  Solving for rhoUz, Initial residual = 0, Final residual = 0, No Iterations 0
diagonal:  Solving for rhoYi, Initial residual = 0, Final residual = 0, No Iterations 0
diagonal:  Solving for rhoE, Initial residual = 0, Final residual = 0, No Iterations 0
ExecutionTime = 1.81 s  ClockTime = 2 s

Mean and max Courant Numbers = 0.08297557344 0.0998790158831
deltaT = 3.90773227344e-10
Time = 1.02771e-06

diagonal:  Solving for rho, Initial residual = 0, Final residual = 0, No Iterations 0
diagonal:  Solving for rhoUx, Initial residual = 0, Final residual = 0, No Iterations 0
diagonal:  Solving for rhoUz, Initial residual = 0, Final residual = 0, No Iterations 0
diagonal:  Solving for rhoYi, Initial residual = 0, Final residual = 0, No Iterations 0
diagonal:  Solving for rhoE, Initial residual = 0, Final residual = 0, No Iterations 0
ExecutionTime = 1.83 s  ClockTime = 2 s

Mean and max Courant Numbers = 0.0829802574329 0.099833324137
deltaT = 3.90773227344e-10
Time = 1.0281e-06

diagonal:  Solving for rho, Initial residual = 0, Final residual = 0, No Iterations 0
diagonal:  Solving for rhoUx, Initial residual = 0, Final residual = 0, No Iterations 0
diagonal:  Solving for rhoUz, Initial residual = 0, Final residual = 0, No Iterations 0
diagonal:  Solving for rhoYi, Initial residual = 0, Final residual = 0, No Iterations 0
diagonal:  Solving for rhoE, Initial residual = 0, Final residual = 0, No Iterations 0
ExecutionTime = 1.85 s  ClockTime = 2 s

Mean and max Courant Numbers = 0.0829842040937 0.0997842882401
deltaT = 3.90773227344e-10
Time = 1.02849e-06

diagonal:  Solving for rho, Initial residual = 0, Final residual = 0, No Iterations 0
diagonal:  Solving for rhoUx, Initial residual = 0, Final residual = 0, No Iterations 0
diagonal:  Solving for rhoUz, Initial residual = 0, Final residual = 0, No Iterations 0
diagonal:  Solving for rhoYi, Initial residual = 0, Final residual = 0, No Iterations 0
diagonal:  Solving for rhoE, Initial residual = 0, Final residual = 0, No Iterations 0
ExecutionTime = 1.87 s  ClockTime = 2 s

Mean and max Courant Numbers = 0.082986329818 0.0997320791763
deltaT = 3.90773227344e-10
Time = 1.02888e-06

diagonal:  Solving for rho, Initial residual = 0, Final residual = 0, No Iterations 0
diagonal:  Solving for rhoUx, Initial residual = 0, Final residual = 0, No Iterations 0
diagonal:  Solving for rhoUz, Initial residual = 0, Final residual = 0, No Iterations 0
diagonal:  Solving for rhoYi, Initial residual = 0, Final residual = 0, No Iterations 0
diagonal:  Solving for rhoE, Initial residual = 0, Final residual = 0, No Iterations 0
ExecutionTime = 1.9 s  ClockTime = 2 s

Mean and max Courant Numbers = 0.0829858809524 0.0996768892243
deltaT = 3.90773227344e-10
Time = 1.02927e-06

diagonal:  Solving for rho, Initial residual = 0, Final residual = 0, No Iterations 0
diagonal:  Solving for rhoUx, Initial residual = 0, Final residual = 0, No Iterations 0
diagonal:  Solving for rhoUz, Initial residual = 0, Final residual = 0, No Iterations 0
diagonal:  Solving for rhoYi, Initial residual = 0, Final residual = 0, No Iterations 0
diagonal:  Solving for rhoE, Initial residual = 0, Final residual = 0, No Iterations 0
ExecutionTime = 1.92 s  ClockTime = 2 s

Mean and max Courant Numbers = 0.082984350834 0.0996189297722
deltaT = 3.90773227344e-10
Time = 1.02966e-06

diagonal:  Solving for rho, Initial residual = 0, Final residual = 0, No Iterations 0
diagonal:  Solving for rhoUx, Initial residual = 0, Final residual = 0, No Iterations 0
diagonal:  Solving for rhoUz, Initial residual = 0, Final residual = 0, No Iterations 0
diagonal:  Solving for rhoYi, Initial residual = 0, Final residual = 0, No Iterations 0
diagonal:  Solving for rhoE, Initial residual = 0, Final residual = 0, No Iterations 0
y line
466.425339933	466.425339933	0.994067955725	0.00593204427532
y line
466.425339933	466.425339933	0.994067955725	0.00593204427532
y line
466.425339933	466.425339933	0.994067955725	0.00593204427532
ExecutionTime = 1.94 s  ClockTime = 2 s

Mean and max Courant Numbers = 0.0829819752598 0.0996487247253
deltaT = 3.90773227344e-10
Time = 1.03005e-06

diagonal:  Solving for rho, Initial residual = 0, Final residual = 0, No Iterations 0
diagonal:  Solving for rhoUx, Initial residual = 0, Final residual = 0, No Iterations 0
diagonal:  Solving for rhoUz, Initial residual = 0, Final residual = 0, No Iterations 0
diagonal:  Solving for rhoYi, Initial residual = 0, Final residual = 0, No Iterations 0
diagonal:  Solving for rhoE, Initial residual = 0, Final residual = 0, No Iterations 0
ExecutionTime = 1.96 s  ClockTime = 2 s

Mean and max Courant Numbers = 0.0829752652797 0.0997136825669
deltaT = 3.90773227344e-10
Time = 1.03044e-06

diagonal:  Solving for rho, Initial residual = 0, Final residual = 0, No Iterations 0
diagonal:  Solving for rhoUx, Initial residual = 0, Final residual = 0, No Iterations 0
diagonal:  Solving for rhoUz, Initial residual = 0, Final residual = 0, No Iterations 0
diagonal:  Solving for rhoYi, Initial residual = 0, Final residual = 0, No Iterations 0
diagonal:  Solving for rhoE, Initial residual = 0, Final residual = 0, No Iterations 0
ExecutionTime = 1.98 s  ClockTime = 2 s

Mean and max Courant Numbers = 0.0829676300295 0.0997747628213
deltaT = 3.90773227344e-10
Time = 1.03083e-06

diagonal:  Solving for rho, Initial residual = 0, Final residual = 0, No Iterations 0
diagonal:  Solving for rhoUx, Initial residual = 0, Final residual = 0, No Iterations 0
diagonal:  Solving for rhoUz, Initial residual = 0, Final residual = 0, No Iterations 0
diagonal:  Solving for rhoYi, Initial residual = 0, Final residual = 0, No Iterations 0
diagonal:  Solving for rhoE, Initial residual = 0, Final residual = 0, No Iterations 0
ExecutionTime = 2.01 s  ClockTime = 2 s

Mean and max Courant Numbers = 0.0829570856267 0.0998317186769
deltaT = 3.90773227344e-10
Time = 1.03122e-06

diagonal:  Solving for rho, Initial residual = 0, Final residual = 0, No Iterations 0
diagonal:  Solving for rhoUx, Initial residual = 0, Final residual = 0, No Iterations 0
diagonal:  Solving for rhoUz, Initial residual = 0, Final residual = 0, No Iterations 0
diagonal:  Solving for rhoYi, Initial residual = 0, Final residual = 0, No Iterations 0
diagonal:  Solving for rhoE, Initial residual = 0, Final residual = 0, No Iterations 0
THvfctree_XrhoP, ISAT performance: nCall = 0, notCall = 0, nRetrieved = 0, nGrowth = 0, nAdd = 0
THvfctree_XrhoP, recent info: nCall = 0, nRetrieved = 0, nGrowth = 0, nAdd = 0
NtimeSteps: 80, Treedepth: 0, Mindepth: 0
maxNLeafs: 100
TEvfctree_XrhoP, ISAT performance: nCall = 0, notCall = 0, nRetrieved = 0, nGrowth = 0, nAdd = 0
TEvfctree_XrhoP, recent info: nCall = 0, nRetrieved = 0, nGrowth = 0, nAdd = 0
NtimeSteps: 80, Treedepth: 0, Mindepth: 0
maxNLeafs: 100
ExecutionTime = 2.03 s  ClockTime = 2 s

Mean and max Courant Numbers = 0.0829473963334 0.0998843981619
deltaT = 3.90773227344e-10
Time = 1.03161e-06

diagonal:  Solving for rho, Initial residual = 0, Final residual = 0, No Iterations 0
diagonal:  Solving for rhoUx, Initial residual = 0, Final residual = 0, No Iterations 0
diagonal:  Solving for rhoUz, Initial residual = 0, Final residual = 0, No Iterations 0
diagonal:  Solving for rhoYi, Initial residual = 0, Final residual = 0, No Iterations 0
diagonal:  Solving for rhoE, Initial residual = 0, Final residual = 0, No Iterations 0
ExecutionTime = 2.05 s  ClockTime = 2 s

Mean and max Courant Numbers = 0.0829398146803 0.0999326746792
deltaT = 3.90773227344e-10
Time = 1.03201e-06

diagonal:  Solving for rho, Initial residual = 0, Final residual = 0, No Iterations 0
diagonal:  Solving for rhoUx, Initial residual = 0, Final residual = 0, No Iterations 0
diagonal:  Solving for rhoUz, Initial residual = 0, Final residual = 0, No Iterations 0
diagonal:  Solving for rhoYi, Initial residual = 0, Final residual = 0, No Iterations 0
diagonal:  Solving for rhoE, Initial residual = 0, Final residual = 0, No Iterations 0
ExecutionTime = 2.07 s  ClockTime = 2 s

Mean and max Courant Numbers = 0.0829295877646 0.0999764081621
deltaT = 3.90773227344e-10
Time = 1.0324e-06

diagonal:  Solving for rho, Initial residual = 0, Final residual = 0, No Iterations 0
diagonal:  Solving for rhoUx, Initial residual = 0, Final residual = 0, No Iterations 0
diagonal:  Solving for rhoUz, Initial residual = 0, Final residual = 0, No Iterations 0
diagonal:  Solving for rhoYi, Initial residual = 0, Final residual = 0, No Iterations 0
diagonal:  Solving for rhoE, Initial residual = 0, Final residual = 0, No Iterations 0
ExecutionTime = 2.09 s  ClockTime = 2 s

Mean and max Courant Numbers = 0.0829182444683 0.100015449225
deltaT = 3.88527404198e-10
Time = 1.03278e-06

diagonal:  Solving for rho, Initial residual = 0, Final residual = 0, No Iterations 0
diagonal:  Solving for rhoUx, Initial residual = 0, Final residual = 0, No Iterations 0
diagonal:  Solving for rhoUz, Initial residual = 0, Final residual = 0, No Iterations 0
diagonal:  Solving for rhoYi, Initial residual = 0, Final residual = 0, No Iterations 0
diagonal:  Solving for rhoE, Initial residual = 0, Final residual = 0, No Iterations 0
ExecutionTime = 2.11 s  ClockTime = 2 s

Mean and max Courant Numbers = 0.0824312216387 0.099474462819
deltaT = 3.88527404198e-10
Time = 1.03317e-06

diagonal:  Solving for rho, Initial residual = 0, Final residual = 0, No Iterations 0
diagonal:  Solving for rhoUx, Initial residual = 0, Final residual = 0, No Iterations 0
diagonal:  Solving for rhoUz, Initial residual = 0, Final residual = 0, No Iterations 0
diagonal:  Solving for rhoYi, Initial residual = 0, Final residual = 0, No Iterations 0
diagonal:  Solving for rhoE, Initial residual = 0, Final residual = 0, No Iterations 0
y line
463.856533922	463.856533922	0.992727092494	0.00727290750604
y line
463.856533922	463.856533922	0.992727092494	0.00727290750604
y line
463.856533922	463.856533922	0.992727092494	0.00727290750604
ExecutionTime = 2.13 s  ClockTime = 2 s

Mean and max Courant Numbers = 0.0824176598781 0.0995034051835
deltaT = 3.88527404198e-10
Time = 1.03356e-06

diagonal:  Solving for rho, Initial residual = 0, Final residual = 0, No Iterations 0
diagonal:  Solving for rhoUx, Initial residual = 0, Final residual = 0, No Iterations 0
diagonal:  Solving for rhoUz, Initial residual = 0, Final residual = 0, No Iterations 0
diagonal:  Solving for rhoYi, Initial residual = 0, Final residual = 0, No Iterations 0
diagonal:  Solving for rhoE, Initial residual = 0, Final residual = 0, No Iterations 0
ExecutionTime = 2.16 s  ClockTime = 2 s

Mean and max Courant Numbers = 0.0824015491565 0.0995273733076
deltaT = 3.88527404198e-10
Time = 1.03395e-06

diagonal:  Solving for rho, Initial residual = 0, Final residual = 0, No Iterations 0
diagonal:  Solving for rhoUx, Initial residual = 0, Final residual = 0, No Iterations 0
diagonal:  Solving for rhoUz, Initial residual = 0, Final residual = 0, No Iterations 0
diagonal:  Solving for rhoYi, Initial residual = 0, Final residual = 0, No Iterations 0
diagonal:  Solving for rhoE, Initial residual = 0, Final residual = 0, No Iterations 0
y line
450.824867322	450.824867322	0.954182694571	0.0458173054286
y line
450.824867322	450.824867322	0.954182694571	0.0458173054286
y line
450.824867322	450.824867322	0.954182694571	0.0458173054286
ExecutionTime = 2.18 s  ClockTime = 2 s

Mean and max Courant Numbers = 0.0823843196574 0.0995462816359
deltaT = 3.88527404198e-10
Time = 1.03434e-06

diagonal:  Solving for rho, Initial residual = 0, Final residual = 0, No Iterations 0
diagonal:  Solving for rhoUx, Initial residual = 0, Final residual = 0, No Iterations 0
diagonal:  Solving for rhoUz, Initial residual = 0, Final residual = 0, No Iterations 0
diagonal:  Solving for rhoYi, Initial residual = 0, Final residual = 0, No Iterations 0
diagonal:  Solving for rhoE, Initial residual = 0, Final residual = 0, No Iterations 0
y line
424.160354496	424.160354496	0.870848736148	0.129151263852
y line
424.160354496	424.160354496	0.870848736148	0.129151263852
y line
424.160354496	424.160354496	0.870848736148	0.129151263852
ExecutionTime = 2.2 s  ClockTime = 2 s

Mean and max Courant Numbers = 0.0823718630824 0.0995600635735
deltaT = 3.88527404198e-10
Time = 1.03473e-06

diagonal:  Solving for rho, Initial residual = 0, Final residual = 0, No Iterations 0
diagonal:  Solving for rhoUx, Initial residual = 0, Final residual = 0, No Iterations 0
diagonal:  Solving for rhoUz, Initial residual = 0, Final residual = 0, No Iterations 0
diagonal:  Solving for rhoYi, Initial residual = 0, Final residual = 0, No Iterations 0
diagonal:  Solving for rhoE, Initial residual = 0, Final residual = 0, No Iterations 0
ExecutionTime = 2.22 s  ClockTime = 2 s

Mean and max Courant Numbers = 0.0823575351895 0.0995686705732
deltaT = 3.88527404198e-10
Time = 1.03512e-06

diagonal:  Solving for rho, Initial residual = 0, Final residual = 0, No Iterations 0
diagonal:  Solving for rhoUx, Initial residual = 0, Final residual = 0, No Iterations 0
diagonal:  Solving for rhoUz, Initial residual = 0, Final residual = 0, No Iterations 0
diagonal:  Solving for rhoYi, Initial residual = 0, Final residual = 0, No Iterations 0
diagonal:  Solving for rhoE, Initial residual = 0, Final residual = 0, No Iterations 0
y line
462.467531032	462.467531032	0.990948280177	0.00905171982269
y line
462.467531032	462.467531032	0.990948280177	0.00905171982269
y line
462.467531032	462.467531032	0.990948280177	0.00905171982269
ExecutionTime = 2.24 s  ClockTime = 2 s

Mean and max Courant Numbers = 0.0823456655406 0.099572072159
deltaT = 3.88527404198e-10
Time = 1.0355e-06

diagonal:  Solving for rho, Initial residual = 0, Final residual = 0, No Iterations 0
diagonal:  Solving for rhoUx, Initial residual = 0, Final residual = 0, No Iterations 0
diagonal:  Solving for rhoUz, Initial residual = 0, Final residual = 0, No Iterations 0
diagonal:  Solving for rhoYi, Initial residual = 0, Final residual = 0, No Iterations 0
diagonal:  Solving for rhoE, Initial residual = 0, Final residual = 0, No Iterations 0
ExecutionTime = 2.26 s  ClockTime = 2 s

Mean and max Courant Numbers = 0.0823349687919 0.0995940471178
deltaT = 3.88527404198e-10
Time = 1.03589e-06

diagonal:  Solving for rho, Initial residual = 0, Final residual = 0, No Iterations 0
diagonal:  Solving for rhoUx, Initial residual = 0, Final residual = 0, No Iterations 0
diagonal:  Solving for rhoUz, Initial residual = 0, Final residual = 0, No Iterations 0
diagonal:  Solving for rhoYi, Initial residual = 0, Final residual = 0, No Iterations 0
diagonal:  Solving for rhoE, Initial residual = 0, Final residual = 0, No Iterations 0
ExecutionTime = 2.28 s  ClockTime = 2 s

Mean and max Courant Numbers = 0.0823220425893 0.0996245650912
deltaT = 3.88527404198e-10
Time = 1.03628e-06

diagonal:  Solving for rho, Initial residual = 0, Final residual = 0, No Iterations 0
diagonal:  Solving for rhoUx, Initial residual = 0, Final residual = 0, No Iterations 0
diagonal:  Solving for rhoUz, Initial residual = 0, Final residual = 0, No Iterations 0
diagonal:  Solving for rhoYi, Initial residual = 0, Final residual = 0, No Iterations 0
diagonal:  Solving for rhoE, Initial residual = 0, Final residual = 0, No Iterations 0
ExecutionTime = 2.3 s  ClockTime = 3 s

Mean and max Courant Numbers = 0.0823112611337 0.0996502721611
deltaT = 3.88527404198e-10
Time = 1.03667e-06

diagonal:  Solving for rho, Initial residual = 0, Final residual = 0, No Iterations 0
diagonal:  Solving for rhoUx, Initial residual = 0, Final residual = 0, No Iterations 0
diagonal:  Solving for rhoUz, Initial residual = 0, Final residual = 0, No Iterations 0
diagonal:  Solving for rhoYi, Initial residual = 0, Final residual = 0, No Iterations 0
diagonal:  Solving for rhoE, Initial residual = 0, Final residual = 0, No Iterations 0
y line
465.068244959	465.068244959	0.994133170367	0.00586682963329
y line
465.463256	465.463256	0.994064197282	0.0059358027183
y line
465.068244959	465.068244959	0.994133170367	0.00586682963329
y line
465.463256	465.463256	0.994064197282	0.0059358027183
y line
465.068244959	465.068244959	0.994133170367	0.00586682963329
y line
465.463256	465.463256	0.994064197282	0.0059358027183
ExecutionTime = 2.32 s  ClockTime = 3 s

Mean and max Courant Numbers = 0.0823023322327 0.0996715191367
deltaT = 3.88527404198e-10
Time = 1.03706e-06

diagonal:  Solving for rho, Initial residual = 0, Final residual = 0, No Iterations 0
diagonal:  Solving for rhoUx, Initial residual = 0, Final residual = 0, No Iterations 0
diagonal:  Solving for rhoUz, Initial residual = 0, Final residual = 0, No Iterations 0
diagonal:  Solving for rhoYi, Initial residual = 0, Final residual = 0, No Iterations 0
diagonal:  Solving for rhoE, Initial residual = 0, Final residual = 0, No Iterations 0
ExecutionTime = 2.34 s  ClockTime = 3 s

Mean and max Courant Numbers = 0.0822945090774 0.0996879231478
deltaT = 3.88527404198e-10
Time = 1.03745e-06

diagonal:  Solving for rho, Initial residual = 0, Final residual = 0, No Iterations 0
diagonal:  Solving for rhoUx, Initial residual = 0, Final residual = 0, No Iterations 0
diagonal:  Solving for rhoUz, Initial residual = 0, Final residual = 0, No Iterations 0
diagonal:  Solving for rhoYi, Initial residual = 0, Final residual = 0, No Iterations 0
diagonal:  Solving for rhoE, Initial residual = 0, Final residual = 0, No Iterations 0
ExecutionTime = 2.36 s  ClockTime = 3 s

Mean and max Courant Numbers = 0.0822866669842 0.0996991631754
deltaT = 3.88527404198e-10
Time = 1.03784e-06

diagonal:  Solving for rho, Initial residual = 0, Final residual = 0, No Iterations 0
diagonal:  Solving for rhoUx, Initial residual = 0, Final residual = 0, No Iterations 0
diagonal:  Solving for rhoUz, Initial residual = 0, Final residual = 0, No Iterations 0
diagonal:  Solving for rhoYi, Initial residual = 0, Final residual = 0, No Iterations 0
diagonal:  Solving for rhoE, Initial residual = 0, Final residual = 0, No Iterations 0
ExecutionTime = 2.38 s  ClockTime = 3 s

Mean and max Courant Numbers = 0.0822801632635 0.0997051696257
deltaT = 3.88527404198e-10
Time = 1.03822e-06

diagonal:  Solving for rho, Initial residual = 0, Final residual = 0, No Iterations 0
diagonal:  Solving for rhoUx, Initial residual = 0, Final residual = 0, No Iterations 0
diagonal:  Solving for rhoUz, Initial residual = 0, Final residual = 0, No Iterations 0
diagonal:  Solving for rhoYi, Initial residual = 0, Final residual = 0, No Iterations 0
diagonal:  Solving for rhoE, Initial residual = 0, Final residual = 0, No Iterations 0
ExecutionTime = 2.4 s  ClockTime = 3 s

Mean and max Courant Numbers = 0.0822769215939 0.0997058934003
deltaT = 3.88527404198e-10
Time = 1.03861e-06

diagonal:  Solving for rho, Initial residual = 0, Final residual = 0, No Iterations 0
diagonal:  Solving for rhoUx, Initial residual = 0, Final residual = 0, No Iterations 0
diagonal:  Solving for rhoUz, Initial residual = 0, Final residual = 0, No Iterations 0
diagonal:  Solving for rhoYi, Initial residual = 0, Final residual = 0, No Iterations 0
diagonal:  Solving for rhoE, Initial residual = 0, Final residual = 0, No Iterations 0
ExecutionTime = 2.42 s  ClockTime = 3 s

Mean and max Courant Numbers = 0.0822746091901 0.0997013060261
deltaT = 3.88527404198e-10
Time = 1.039e-06

diagonal:  Solving for rho, Initial residual = 0, Final residual = 0, No Iterations 0
diagonal:  Solving for rhoUx, Initial residual = 0, Final residual = 0, No Iterations 0
diagonal:  Solving for rhoUz, Initial residual = 0, Final residual = 0, No Iterations 0
diagonal:  Solving for rhoYi, Initial residual = 0, Final residual = 0, No Iterations 0
diagonal:  Solving for rhoE, Initial residual = 0, Final residual = 0, No Iterations 0
THvfctree_XrhoP, ISAT performance: nCall = 0, notCall = 0, nRetrieved = 0, nGrowth = 0, nAdd = 0
THvfctree_XrhoP, recent info: nCall = 0, nRetrieved = 0, nGrowth = 0, nAdd = 0
NtimeSteps: 100, Treedepth: 0, Mindepth: 0
maxNLeafs: 100
TEvfctree_XrhoP, ISAT performance: nCall = 0, notCall = 0, nRetrieved = 0, nGrowth = 0, nAdd = 0
TEvfctree_XrhoP, recent info: nCall = 0, nRetrieved = 0, nGrowth = 0, nAdd = 0
NtimeSteps: 100, Treedepth: 0, Mindepth: 0
maxNLeafs: 100
ExecutionTime = 2.44 s  ClockTime = 3 s

Mean and max Courant Numbers = 0.0822713478638 0.0996914001032
deltaT = 3.88527404198e-10
Time = 1.03939e-06

diagonal:  Solving for rho, Initial residual = 0, Final residual = 0, No Iterations 0
diagonal:  Solving for rhoUx, Initial residual = 0, Final residual = 0, No Iterations 0
diagonal:  Solving for rhoUz, Initial residual = 0, Final residual = 0, No Iterations 0
diagonal:  Solving for rhoYi, Initial residual = 0, Final residual = 0, No Iterations 0
diagonal:  Solving for rhoE, Initial residual = 0, Final residual = 0, No Iterations 0
ExecutionTime = 2.46 s  ClockTime = 3 s

Mean and max Courant Numbers = 0.0822713205273 0.0996761897363
deltaT = 3.88527404198e-10
Time = 1.03978e-06

diagonal:  Solving for rho, Initial residual = 0, Final residual = 0, No Iterations 0
diagonal:  Solving for rhoUx, Initial residual = 0, Final residual = 0, No Iterations 0
diagonal:  Solving for rhoUz, Initial residual = 0, Final residual = 0, No Iterations 0
diagonal:  Solving for rhoYi, Initial residual = 0, Final residual = 0, No Iterations 0
diagonal:  Solving for rhoE, Initial residual = 0, Final residual = 0, No Iterations 0
ExecutionTime = 2.48 s  ClockTime = 3 s

Mean and max Courant Numbers = 0.0822780250201 0.0996557108304
deltaT = 3.88527404198e-10
Time = 1.04017e-06

diagonal:  Solving for rho, Initial residual = 0, Final residual = 0, No Iterations 0
diagonal:  Solving for rhoUx, Initial residual = 0, Final residual = 0, No Iterations 0
diagonal:  Solving for rhoUz, Initial residual = 0, Final residual = 0, No Iterations 0
diagonal:  Solving for rhoYi, Initial residual = 0, Final residual = 0, No Iterations 0
diagonal:  Solving for rhoE, Initial residual = 0, Final residual = 0, No Iterations 0
ExecutionTime = 2.5 s  ClockTime = 3 s

Mean and max Courant Numbers = 0.082284359763 0.0996300212792
deltaT = 3.88527404198e-10
Time = 1.04056e-06

diagonal:  Solving for rho, Initial residual = 0, Final residual = 0, No Iterations 0
diagonal:  Solving for rhoUx, Initial residual = 0, Final residual = 0, No Iterations 0
diagonal:  Solving for rhoUz, Initial residual = 0, Final residual = 0, No Iterations 0
diagonal:  Solving for rhoYi, Initial residual = 0, Final residual = 0, No Iterations 0
diagonal:  Solving for rhoE, Initial residual = 0, Final residual = 0, No Iterations 0
ExecutionTime = 2.52 s  ClockTime = 3 s

Mean and max Courant Numbers = 0.0822905507722 0.0995992012691
deltaT = 3.88527404198e-10
Time = 1.04094e-06

diagonal:  Solving for rho, Initial residual = 0, Final residual = 0, No Iterations 0
diagonal:  Solving for rhoUx, Initial residual = 0, Final residual = 0, No Iterations 0
diagonal:  Solving for rhoUz, Initial residual = 0, Final residual = 0, No Iterations 0
diagonal:  Solving for rhoYi, Initial residual = 0, Final residual = 0, No Iterations 0
diagonal:  Solving for rhoE, Initial residual = 0, Final residual = 0, No Iterations 0
ExecutionTime = 2.54 s  ClockTime = 3 s

Mean and max Courant Numbers = 0.0822972095592 0.0995672736461
deltaT = 3.88527404198e-10
Time = 1.04133e-06

diagonal:  Solving for rho, Initial residual = 0, Final residual = 0, No Iterations 0
diagonal:  Solving for rhoUx, Initial residual = 0, Final residual = 0, No Iterations 0
diagonal:  Solving for rhoUz, Initial residual = 0, Final residual = 0, No Iterations 0
diagonal:  Solving for rhoYi, Initial residual = 0, Final residual = 0, No Iterations 0
diagonal:  Solving for rhoE, Initial residual = 0, Final residual = 0, No Iterations 0
ExecutionTime = 2.56 s  ClockTime = 3 s

Mean and max Courant Numbers = 0.0823077802198 0.099561268681
deltaT = 3.88527404198e-10
Time = 1.04172e-06

diagonal:  Solving for rho, Initial residual = 0, Final residual = 0, No Iterations 0
diagonal:  Solving for rhoUx, Initial residual = 0, Final residual = 0, No Iterations 0
diagonal:  Solving for rhoUz, Initial residual = 0, Final residual = 0, No Iterations 0
diagonal:  Solving for rhoYi, Initial residual = 0, Final residual = 0, No Iterations 0
diagonal:  Solving for rhoE, Initial residual = 0, Final residual = 0, No Iterations 0
y line
466.116362289	466.116362289	0.993938439568	0.0060615604316
y line
466.116362289	466.116362289	0.993938439568	0.0060615604316
y line
466.116362289	466.116362289	0.993938439568	0.0060615604316
ExecutionTime = 2.58 s  ClockTime = 3 s

Mean and max Courant Numbers = 0.082320852073 0.0995496023642
deltaT = 3.88527404198e-10
Time = 1.04211e-06

diagonal:  Solving for rho, Initial residual = 0, Final residual = 0, No Iterations 0
diagonal:  Solving for rhoUx, Initial residual = 0, Final residual = 0, No Iterations 0
diagonal:  Solving for rhoUz, Initial residual = 0, Final residual = 0, No Iterations 0
diagonal:  Solving for rhoYi, Initial residual = 0, Final residual = 0, No Iterations 0
diagonal:  Solving for rhoE, Initial residual = 0, Final residual = 0, No Iterations 0
ExecutionTime = 2.6 s  ClockTime = 3 s

Mean and max Courant Numbers = 0.082332315032 0.099532364293
deltaT = 3.88527404198e-10
Time = 1.0425e-06

diagonal:  Solving for rho, Initial residual = 0, Final residual = 0, No Iterations 0
diagonal:  Solving for rhoUx, Initial residual = 0, Final residual = 0, No Iterations 0
diagonal:  Solving for rhoUz, Initial residual = 0, Final residual = 0, No Iterations 0
diagonal:  Solving for rhoYi, Initial residual = 0, Final residual = 0, No Iterations 0
diagonal:  Solving for rhoE, Initial residual = 0, Final residual = 0, No Iterations 0
y line
465.162176766	465.162176766	0.993987878438	0.00601212156181
y line
465.162176766	465.162176766	0.993987878438	0.00601212156181
y line
465.162176766	465.162176766	0.993987878438	0.00601212156181
ExecutionTime = 2.62 s  ClockTime = 3 s

Mean and max Courant Numbers = 0.0823440088003 0.0995096711269
deltaT = 3.88527404198e-10
Time = 1.04289e-06

diagonal:  Solving for rho, Initial residual = 0, Final residual = 0, No Iterations 0
diagonal:  Solving for rhoUx, Initial residual = 0, Final residual = 0, No Iterations 0
diagonal:  Solving for rhoUz, Initial residual = 0, Final residual = 0, No Iterations 0
diagonal:  Solving for rhoYi, Initial residual = 0, Final residual = 0, No Iterations 0
diagonal:  Solving for rhoE, Initial residual = 0, Final residual = 0, No Iterations 0
ExecutionTime = 2.64 s  ClockTime = 3 s

Mean and max Courant Numbers = 0.0823553202971 0.0994816654176
deltaT = 3.88527404198e-10
Time = 1.04327e-06

diagonal:  Solving for rho, Initial residual = 0, Final residual = 0, No Iterations 0
diagonal:  Solving for rhoUx, Initial residual = 0, Final residual = 0, No Iterations 0
diagonal:  Solving for rhoUz, Initial residual = 0, Final residual = 0, No Iterations 0
diagonal:  Solving for rhoYi, Initial residual = 0, Final residual = 0, No Iterations 0
diagonal:  Solving for rhoE, Initial residual = 0, Final residual = 0, No Iterations 0
ExecutionTime = 2.66 s  ClockTime = 3 s

Mean and max Courant Numbers = 0.0823737817228 0.0994485141057
deltaT = 3.88527404198e-10
Time = 1.04366e-06

diagonal:  Solving for rho, Initial residual = 0, Final residual = 0, No Iterations 0
diagonal:  Solving for rhoUx, Initial residual = 0, Final residual = 0, No Iterations 0
diagonal:  Solving for rhoUz, Initial residual = 0, Final residual = 0, No Iterations 0
diagonal:  Solving for rhoYi, Initial residual = 0, Final residual = 0, No Iterations 0
diagonal:  Solving for rhoE, Initial residual = 0, Final residual = 0, No Iterations 0
ExecutionTime = 2.68 s  ClockTime = 3 s

Mean and max Courant Numbers = 0.0823870034686 0.0994104070292
deltaT = 3.88527404198e-10
Time = 1.04405e-06

diagonal:  Solving for rho, Initial residual = 0, Final residual = 0, No Iterations 0
diagonal:  Solving for rhoUx, Initial residual = 0, Final residual = 0, No Iterations 0
diagonal:  Solving for rhoUz, Initial residual = 0, Final residual = 0, No Iterations 0
diagonal:  Solving for rhoYi, Initial residual = 0, Final residual = 0, No Iterations 0
diagonal:  Solving for rhoE, Initial residual = 0, Final residual = 0, No Iterations 0
ExecutionTime = 2.7 s  ClockTime = 3 s

Mean and max Courant Numbers = 0.082399544256 0.0993675544853
deltaT = 3.88527404198e-10
Time = 1.04444e-06

diagonal:  Solving for rho, Initial residual = 0, Final residual = 0, No Iterations 0
diagonal:  Solving for rhoUx, Initial residual = 0, Final residual = 0, No Iterations 0
diagonal:  Solving for rhoUz, Initial residual = 0, Final residual = 0, No Iterations 0
diagonal:  Solving for rhoYi, Initial residual = 0, Final residual = 0, No Iterations 0
diagonal:  Solving for rhoE, Initial residual = 0, Final residual = 0, No Iterations 0
ExecutionTime = 2.73 s  ClockTime = 3 s

Mean and max Courant Numbers = 0.0824115420157 0.0993201855936
deltaT = 3.88527404198e-10
Time = 1.04483e-06

diagonal:  Solving for rho, Initial residual = 0, Final residual = 0, No Iterations 0
diagonal:  Solving for rhoUx, Initial residual = 0, Final residual = 0, No Iterations 0
diagonal:  Solving for rhoUz, Initial residual = 0, Final residual = 0, No Iterations 0
diagonal:  Solving for rhoYi, Initial residual = 0, Final residual = 0, No Iterations 0
diagonal:  Solving for rhoE, Initial residual = 0, Final residual = 0, No Iterations 0
ExecutionTime = 2.76 s  ClockTime = 3 s

Mean and max Courant Numbers = 0.0824298303078 0.0992685467429
deltaT = 3.91282917703e-10
Time = 1.04522e-06

diagonal:  Solving for rho, Initial residual = 0, Final residual = 0, No Iterations 0
diagonal:  Solving for rhoUx, Initial residual = 0, Final residual = 0, No Iterations 0
diagonal:  Solving for rhoUz, Initial residual = 0, Final residual = 0, No Iterations 0
diagonal:  Solving for rhoYi, Initial residual = 0, Final residual = 0, No Iterations 0
diagonal:  Solving for rhoE, Initial residual = 0, Final residual = 0, No Iterations 0
ExecutionTime = 2.78 s  ClockTime = 3 s

Mean and max Courant Numbers = 0.0830266047431 0.0999161366378
deltaT = 3.91282917703e-10
Time = 1.04561e-06

diagonal:  Solving for rho, Initial residual = 0, Final residual = 0, No Iterations 0
diagonal:  Solving for rhoUx, Initial residual = 0, Final residual = 0, No Iterations 0
diagonal:  Solving for rhoUz, Initial residual = 0, Final residual = 0, No Iterations 0
diagonal:  Solving for rhoYi, Initial residual = 0, Final residual = 0, No Iterations 0
diagonal:  Solving for rhoE, Initial residual = 0, Final residual = 0, No Iterations 0
y line
464.551894438	464.551894438	0.994062188673	0.00593781132654
y line
464.551894438	464.551894438	0.994062188673	0.00593781132654
y line
464.551894438	464.551894438	0.994062188673	0.00593781132654
ExecutionTime = 2.8 s  ClockTime = 3 s

Mean and max Courant Numbers = 0.0830377933978 0.0998558752261
deltaT = 3.91282917703e-10
Time = 1.046e-06

diagonal:  Solving for rho, Initial residual = 0, Final residual = 0, No Iterations 0
diagonal:  Solving for rhoUx, Initial residual = 0, Final residual = 0, No Iterations 0
diagonal:  Solving for rhoUz, Initial residual = 0, Final residual = 0, No Iterations 0
diagonal:  Solving for rhoYi, Initial residual = 0, Final residual = 0, No Iterations 0
diagonal:  Solving for rhoE, Initial residual = 0, Final residual = 0, No Iterations 0
ExecutionTime = 2.82 s  ClockTime = 3 s

Mean and max Courant Numbers = 0.0830493368367 0.0997920844425
deltaT = 3.91282917703e-10
Time = 1.04639e-06

diagonal:  Solving for rho, Initial residual = 0, Final residual = 0, No Iterations 0
diagonal:  Solving for rhoUx, Initial residual = 0, Final residual = 0, No Iterations 0
diagonal:  Solving for rhoUz, Initial residual = 0, Final residual = 0, No Iterations 0
diagonal:  Solving for rhoYi, Initial residual = 0, Final residual = 0, No Iterations 0
diagonal:  Solving for rhoE, Initial residual = 0, Final residual = 0, No Iterations 0
ExecutionTime = 2.84 s  ClockTime = 3 s

Mean and max Courant Numbers = 0.0830606575933 0.0997250623966
deltaT = 3.91282917703e-10
Time = 1.04679e-06

diagonal:  Solving for rho, Initial residual = 0, Final residual = 0, No Iterations 0
diagonal:  Solving for rhoUx, Initial residual = 0, Final residual = 0, No Iterations 0
diagonal:  Solving for rhoUz, Initial residual = 0, Final residual = 0, No Iterations 0
diagonal:  Solving for rhoYi, Initial residual = 0, Final residual = 0, No Iterations 0
diagonal:  Solving for rhoE, Initial residual = 0, Final residual = 0, No Iterations 0
THvfctree_XrhoP, ISAT performance: nCall = 0, notCall = 0, nRetrieved = 0, nGrowth = 0, nAdd = 0
THvfctree_XrhoP, recent info: nCall = 0, nRetrieved = 0, nGrowth = 0, nAdd = 0
NtimeSteps: 120, Treedepth: 0, Mindepth: 0
maxNLeafs: 100
[...]

Mean and max Courant Numbers = 0.0824811454757 0.0996152256513
deltaT = 3.93686631346e-10
Time = 1.42756e-06

diagonal:  Solving for rho, Initial residual = 0, Final residual = 0, No Iterations 0
diagonal:  Solving for rhoUx, Initial residual = 0, Final residual = 0, No Iterations 0
diagonal:  Solving for rhoUz, Initial residual = 0, Final residual = 0, No Iterations 0
diagonal:  Solving for rhoYi, Initial residual = 0, Final residual = 0, No Iterations 0
diagonal:  Solving for rhoE, Initial residual = 0, Final residual = 0, No Iterations 0
y line
438.73372958	438.73372958	0.856633798285	0.143366201715
y line
438.73372958	438.73372958	0.856633798285	0.143366201715
y line
438.73372958	438.73372958	0.856633798285	0.143366201715
ExecutionTime = 23.07 s  ClockTime = 24 s

Mean and max Courant Numbers = 0.0830374899772 0.0995937233096
deltaT = 3.93686631346e-10
Time = 1.42796e-06

diagonal:  Solving for rho, Initial residual = 0, Final residual = 0, No Iterations 0
diagonal:  Solving for rhoUx, Initial residual = 0, Final residual = 0, No Iterations 0
diagonal:  Solving for rhoUz, Initial residual = 0, Final residual = 0, No Iterations 0
diagonal:  Solving for rhoYi, Initial residual = 0, Final residual = 0, No Iterations 0
diagonal:  Solving for rhoE, Initial residual = 0, Final residual = 0, No Iterations 0
y line
465.571428973	465.571428973	0.994037512244	0.00596248775639
y line
465.571428973	465.571428973	0.994037512244	0.00596248775639
y line
465.571428973	465.571428973	0.994037512244	0.00596248775639
ExecutionTime = 23.09 s  ClockTime = 24 s

Mean and max Courant Numbers = 0.0824726060432 0.0995709404304
deltaT = 3.93686631346e-10
Time = 1.42835e-06

diagonal:  Solving for rho, Initial residual = 0, Final residual = 0, No Iterations 0
diagonal:  Solving for rhoUx, Initial residual = 0, Final residual = 0, No Iterations 0
diagonal:  Solving for rhoUz, Initial residual = 0, Final residual = 0, No Iterations 0
diagonal:  Solving for rhoYi, Initial residual = 0, Final residual = 0, No Iterations 0
diagonal:  Solving for rhoE, Initial residual = 0, Final residual = 0, No Iterations 0
ExecutionTime = 23.11 s  ClockTime = 24 s

Mean and max Courant Numbers = 0.0824684596185 0.0995469880634
deltaT = 3.93686631346e-10
Time = 1.42874e-06

diagonal:  Solving for rho, Initial residual = 0, Final residual = 0, No Iterations 0
diagonal:  Solving for rhoUx, Initial residual = 0, Final residual = 0, No Iterations 0
diagonal:  Solving for rhoUz, Initial residual = 0, Final residual = 0, No Iterations 0
diagonal:  Solving for rhoYi, Initial residual = 0, Final residual = 0, No Iterations 0
diagonal:  Solving for rhoE, Initial residual = 0, Final residual = 0, No Iterations 0
ExecutionTime = 23.13 s  ClockTime = 24 s

Mean and max Courant Numbers = 0.0824649770781 0.0995219840056
deltaT = 3.93686631346e-10
Time = 1.42914e-06

diagonal:  Solving for rho, Initial residual = 0, Final residual = 0, No Iterations 0
diagonal:  Solving for rhoUx, Initial residual = 0, Final residual = 0, No Iterations 0
diagonal:  Solving for rhoUz, Initial residual = 0, Final residual = 0, No Iterations 0
diagonal:  Solving for rhoYi, Initial residual = 0, Final residual = 0, No Iterations 0
diagonal:  Solving for rhoE, Initial residual = 0, Final residual = 0, No Iterations 0
y line
438.693414101	438.693414101	0.856598911845	0.143401088155
y line
438.693414101	438.693414101	0.856598911845	0.143401088155
y line
438.693414101	438.693414101	0.856598911845	0.143401088155
ExecutionTime = 23.15 s  ClockTime = 24 s

Mean and max Courant Numbers = 0.0830235542233 0.0994960520253
deltaT = 3.93686631346e-10
Time = 1.42953e-06

diagonal:  Solving for rho, Initial residual = 0, Final residual = 0, No Iterations 0
diagonal:  Solving for rhoUx, Initial residual = 0, Final residual = 0, No Iterations 0
diagonal:  Solving for rhoUz, Initial residual = 0, Final residual = 0, No Iterations 0
diagonal:  Solving for rhoYi, Initial residual = 0, Final residual = 0, No Iterations 0
diagonal:  Solving for rhoE, Initial residual = 0, Final residual = 0, No Iterations 0
THvfctree_XrhoP, ISAT performance: nCall = 0, notCall = 0, nRetrieved = 0, nGrowth = 0, nAdd = 0
THvfctree_XrhoP, recent info: nCall = 0, nRetrieved = 0, nGrowth = 0, nAdd = 0
NtimeSteps: 1100, Treedepth: 0, Mindepth: 0
maxNLeafs: 100
TEvfctree_XrhoP, ISAT performance: nCall = 0, notCall = 0, nRetrieved = 0, nGrowth = 0, nAdd = 0
TEvfctree_XrhoP, recent info: nCall = 0, nRetrieved = 0, nGrowth = 0, nAdd = 0
NtimeSteps: 1100, Treedepth: 0, Mindepth: 0
maxNLeafs: 100
ExecutionTime = 23.17 s  ClockTime = 24 s

Mean and max Courant Numbers = 0.0824611632498 0.0994693210398
deltaT = 3.93686631346e-10
Time = 1.42992e-06

diagonal:  Solving for rho, Initial residual = 0, Final residual = 0, No Iterations 0
diagonal:  Solving for rhoUx, Initial residual = 0, Final residual = 0, No Iterations 0
diagonal:  Solving for rhoUz, Initial residual = 0, Final residual = 0, No Iterations 0
diagonal:  Solving for rhoYi, Initial residual = 0, Final residual = 0, No Iterations 0
diagonal:  Solving for rhoE, Initial residual = 0, Final residual = 0, No Iterations 0
y line
463.096242842	463.096242842	0.990148107987	0.00985189201268
y line
463.096242842	463.096242842	0.990148107987	0.00985189201268
y line
463.096242842	463.096242842	0.990148107987	0.00985189201268
ExecutionTime = 23.19 s  ClockTime = 24 s

Mean and max Courant Numbers = 0.0824602845833 0.0994644877364
deltaT = 3.93686631346e-10
Time = 1.43032e-06

diagonal:  Solving for rho, Initial residual = 0, Final residual = 0, No Iterations 0
diagonal:  Solving for rhoUx, Initial residual = 0, Final residual = 0, No Iterations 0
diagonal:  Solving for rhoUz, Initial residual = 0, Final residual = 0, No Iterations 0
diagonal:  Solving for rhoYi, Initial residual = 0, Final residual = 0, No Iterations 0
diagonal:  Solving for rhoE, Initial residual = 0, Final residual = 0, No Iterations 0
y line
445.750814458	445.750814458	0.939870061085	0.0601299389153
y line
451.822690166	451.822690166	0.95684315295	0.0431568470501
y line
459.786620533	459.786620533	0.979966449021	0.0200335509786
y line
445.750814458	445.750814458	0.939870061085	0.0601299389153
y line
451.822690166	451.822690166	0.95684315295	0.0431568470501
y line
459.786620533	459.786620533	0.979966449021	0.0200335509786
y line
445.750814458	445.750814458	0.939870061085	0.0601299389153
y line
451.822690166	451.822690166	0.95684315295	0.0431568470501
y line
459.786620533	459.786620533	0.979966449021	0.0200335509786
ExecutionTime = 23.21 s  ClockTime = 24 s

Mean and max Courant Numbers = 0.0824599838258 0.099476354106
deltaT = 3.93686631346e-10
Time = 1.43071e-06

diagonal:  Solving for rho, Initial residual = 0, Final residual = 0, No Iterations 0
diagonal:  Solving for rhoUx, Initial residual = 0, Final residual = 0, No Iterations 0
diagonal:  Solving for rhoUz, Initial residual = 0, Final residual = 0, No Iterations 0
diagonal:  Solving for rhoYi, Initial residual = 0, Final residual = 0, No Iterations 0
diagonal:  Solving for rhoE, Initial residual = 0, Final residual = 0, No Iterations 0
y line
438.713032188	438.713032188	0.856568676349	0.143431323651
y line
438.713032188	438.713032188	0.856568676349	0.143431323651
y line
438.713032188	438.713032188	0.856568676349	0.143431323651
ExecutionTime = 23.23 s  ClockTime = 24 s

Mean and max Courant Numbers = 0.083020301726 0.0995019522519
deltaT = 3.93686631346e-10
Time = 1.4311e-06

diagonal:  Solving for rho, Initial residual = 0, Final residual = 0, No Iterations 0
diagonal:  Solving for rhoUx, Initial residual = 0, Final residual = 0, No Iterations 0
diagonal:  Solving for rhoUz, Initial residual = 0, Final residual = 0, No Iterations 0
diagonal:  Solving for rhoYi, Initial residual = 0, Final residual = 0, No Iterations 0
diagonal:  Solving for rhoE, Initial residual = 0, Final residual = 0, No Iterations 0
ExecutionTime = 23.25 s  ClockTime = 24 s

Mean and max Courant Numbers = 0.0824589496547 0.0995274741109
deltaT = 3.93686631346e-10
Time = 1.4315e-06

diagonal:  Solving for rho, Initial residual = 0, Final residual = 0, No Iterations 0
diagonal:  Solving for rhoUx, Initial residual = 0, Final residual = 0, No Iterations 0
diagonal:  Solving for rhoUz, Initial residual = 0, Final residual = 0, No Iterations 0
diagonal:  Solving for rhoYi, Initial residual = 0, Final residual = 0, No Iterations 0
diagonal:  Solving for rhoE, Initial residual = 0, Final residual = 0, No Iterations 0
ExecutionTime = 23.27 s  ClockTime = 24 s

Mean and max Courant Numbers = 0.0824588522498 0.0995527889046
deltaT = 3.93686631346e-10
Time = 1.43189e-06

diagonal:  Solving for rho, Initial residual = 0, Final residual = 0, No Iterations 0
diagonal:  Solving for rhoUx, Initial residual = 0, Final residual = 0, No Iterations 0
diagonal:  Solving for rhoUz, Initial residual = 0, Final residual = 0, No Iterations 0
diagonal:  Solving for rhoYi, Initial residual = 0, Final residual = 0, No Iterations 0
diagonal:  Solving for rhoE, Initial residual = 0, Final residual = 0, No Iterations 0
ExecutionTime = 23.29 s  ClockTime = 24 s

Mean and max Courant Numbers = 0.0824588792187 0.0995777693564
deltaT = 3.93686631346e-10
Time = 1.43229e-06

diagonal:  Solving for rho, Initial residual = 0, Final residual = 0, No Iterations 0
diagonal:  Solving for rhoUx, Initial residual = 0, Final residual = 0, No Iterations 0
diagonal:  Solving for rhoUz, Initial residual = 0, Final residual = 0, No Iterations 0
diagonal:  Solving for rhoYi, Initial residual = 0, Final residual = 0, No Iterations 0
diagonal:  Solving for rhoE, Initial residual = 0, Final residual = 0, No Iterations 0
ExecutionTime = 23.3 s  ClockTime = 24 s

Mean and max Courant Numbers = 0.0824586376579 0.0996022925963
deltaT = 3.93686631346e-10
Time = 1.43268e-06

diagonal:  Solving for rho, Initial residual = 0, Final residual = 0, No Iterations 0
diagonal:  Solving for rhoUx, Initial residual = 0, Final residual = 0, No Iterations 0
diagonal:  Solving for rhoUz, Initial residual = 0, Final residual = 0, No Iterations 0
diagonal:  Solving for rhoYi, Initial residual = 0, Final residual = 0, No Iterations 0
diagonal:  Solving for rhoE, Initial residual = 0, Final residual = 0, No Iterations 0
ExecutionTime = 23.32 s  ClockTime = 24 s

Mean and max Courant Numbers = 0.0824589912191 0.0996262409998
deltaT = 3.93686631346e-10
Time = 1.43307e-06

diagonal:  Solving for rho, Initial residual = 0, Final residual = 0, No Iterations 0
diagonal:  Solving for rhoUx, Initial residual = 0, Final residual = 0, No Iterations 0
diagonal:  Solving for rhoUz, Initial residual = 0, Final residual = 0, No Iterations 0
diagonal:  Solving for rhoYi, Initial residual = 0, Final residual = 0, No Iterations 0
diagonal:  Solving for rhoE, Initial residual = 0, Final residual = 0, No Iterations 0
ExecutionTime = 23.34 s  ClockTime = 24 s

Mean and max Courant Numbers = 0.0824601305978 0.0996495029473
deltaT = 3.93686631346e-10
Time = 1.43347e-06

diagonal:  Solving for rho, Initial residual = 0, Final residual = 0, No Iterations 0
diagonal:  Solving for rhoUx, Initial residual = 0, Final residual = 0, No Iterations 0
diagonal:  Solving for rhoUz, Initial residual = 0, Final residual = 0, No Iterations 0
diagonal:  Solving for rhoYi, Initial residual = 0, Final residual = 0, No Iterations 0
diagonal:  Solving for rhoE, Initial residual = 0, Final residual = 0, No Iterations 0
ExecutionTime = 23.36 s  ClockTime = 24 s

Mean and max Courant Numbers = 0.0824610214344 0.0996719734922
deltaT = 3.93686631346e-10
Time = 1.43386e-06

diagonal:  Solving for rho, Initial residual = 0, Final residual = 0, No Iterations 0
diagonal:  Solving for rhoUx, Initial residual = 0, Final residual = 0, No Iterations 0
diagonal:  Solving for rhoUz, Initial residual = 0, Final residual = 0, No Iterations 0
diagonal:  Solving for rhoYi, Initial residual = 0, Final residual = 0, No Iterations 0
diagonal:  Solving for rhoE, Initial residual = 0, Final residual = 0, No Iterations 0
ExecutionTime = 23.38 s  ClockTime = 24 s

Mean and max Courant Numbers = 0.0824617516548 0.0996935549388
deltaT = 3.93686631346e-10
Time = 1.43425e-06

diagonal:  Solving for rho, Initial residual = 0, Final residual = 0, No Iterations 0
diagonal:  Solving for rhoUx, Initial residual = 0, Final residual = 0, No Iterations 0
diagonal:  Solving for rhoUz, Initial residual = 0, Final residual = 0, No Iterations 0
diagonal:  Solving for rhoYi, Initial residual = 0, Final residual = 0, No Iterations 0
diagonal:  Solving for rhoE, Initial residual = 0, Final residual = 0, No Iterations 0
ExecutionTime = 23.4 s  ClockTime = 24 s

Mean and max Courant Numbers = 0.0824628520702 0.0997141573272
deltaT = 3.93686631346e-10
Time = 1.43465e-06

diagonal:  Solving for rho, Initial residual = 0, Final residual = 0, No Iterations 0
diagonal:  Solving for rhoUx, Initial residual = 0, Final residual = 0, No Iterations 0
diagonal:  Solving for rhoUz, Initial residual = 0, Final residual = 0, No Iterations 0
diagonal:  Solving for rhoYi, Initial residual = 0, Final residual = 0, No Iterations 0
diagonal:  Solving for rhoE, Initial residual = 0, Final residual = 0, No Iterations 0
ExecutionTime = 23.42 s  ClockTime = 24 s

Mean and max Courant Numbers = 0.0824640725496 0.0997336988204
deltaT = 3.93686631346e-10
Time = 1.43504e-06

diagonal:  Solving for rho, Initial residual = 0, Final residual = 0, No Iterations 0
diagonal:  Solving for rhoUx, Initial residual = 0, Final residual = 0, No Iterations 0
diagonal:  Solving for rhoUz, Initial residual = 0, Final residual = 0, No Iterations 0
diagonal:  Solving for rhoYi, Initial residual = 0, Final residual = 0, No Iterations 0
diagonal:  Solving for rhoE, Initial residual = 0, Final residual = 0, No Iterations 0
ExecutionTime = 23.44 s  ClockTime = 24 s

Mean and max Courant Numbers = 0.0824649929994 0.0997521059897
deltaT = 3.93686631346e-10
Time = 1.43544e-06

diagonal:  Solving for rho, Initial residual = 0, Final residual = 0, No Iterations 0
diagonal:  Solving for rhoUx, Initial residual = 0, Final residual = 0, No Iterations 0
diagonal:  Solving for rhoUz, Initial residual = 0, Final residual = 0, No Iterations 0
diagonal:  Solving for rhoYi, Initial residual = 0, Final residual = 0, No Iterations 0
diagonal:  Solving for rhoE, Initial residual = 0, Final residual = 0, No Iterations 0
ExecutionTime = 23.46 s  ClockTime = 24 s

Mean and max Courant Numbers = 0.0824656313494 0.0997693140031
deltaT = 3.93686631346e-10
Time = 1.43583e-06

diagonal:  Solving for rho, Initial residual = 0, Final residual = 0, No Iterations 0
diagonal:  Solving for rhoUx, Initial residual = 0, Final residual = 0, No Iterations 0
diagonal:  Solving for rhoUz, Initial residual = 0, Final residual = 0, No Iterations 0
diagonal:  Solving for rhoYi, Initial residual = 0, Final residual = 0, No Iterations 0
diagonal:  Solving for rhoE, Initial residual = 0, Final residual = 0, No Iterations 0
ExecutionTime = 23.48 s  ClockTime = 24 s

Mean and max Courant Numbers = 0.082466036513 0.0997852667207
deltaT = 3.93686631346e-10
Time = 1.43622e-06

diagonal:  Solving for rho, Initial residual = 0, Final residual = 0, No Iterations 0
diagonal:  Solving for rhoUx, Initial residual = 0, Final residual = 0, No Iterations 0
diagonal:  Solving for rhoUz, Initial residual = 0, Final residual = 0, No Iterations 0
diagonal:  Solving for rhoYi, Initial residual = 0, Final residual = 0, No Iterations 0
diagonal:  Solving for rhoE, Initial residual = 0, Final residual = 0, No Iterations 0
y line
464.936833297	464.936833297	0.993958762915	0.0060412370847
y line
464.936833297	464.936833297	0.993958762915	0.0060412370847
y line
464.936833297	464.936833297	0.993958762915	0.0060412370847
ExecutionTime = 23.5 s  ClockTime = 24 s

Mean and max Courant Numbers = 0.0824670156372 0.0997999167
deltaT = 3.93686631346e-10
Time = 1.43662e-06

diagonal:  Solving for rho, Initial residual = 0, Final residual = 0, No Iterations 0
diagonal:  Solving for rhoUx, Initial residual = 0, Final residual = 0, No Iterations 0
diagonal:  Solving for rhoUz, Initial residual = 0, Final residual = 0, No Iterations 0
diagonal:  Solving for rhoYi, Initial residual = 0, Final residual = 0, No Iterations 0
diagonal:  Solving for rhoE, Initial residual = 0, Final residual = 0, No Iterations 0
y line
463.851986273	463.851986273	0.990065729803	0.00993427019723
y line
463.851986273	463.851986273	0.990065729803	0.00993427019723
y line
463.851986273	463.851986273	0.990065729803	0.00993427019723
ExecutionTime = 23.52 s  ClockTime = 25 s

Mean and max Courant Numbers = 0.0824684663989 0.0998132251129
deltaT = 3.93686631346e-10
Time = 1.43701e-06

diagonal:  Solving for rho, Initial residual = 0, Final residual = 0, No Iterations 0
diagonal:  Solving for rhoUx, Initial residual = 0, Final residual = 0, No Iterations 0
diagonal:  Solving for rhoUz, Initial residual = 0, Final residual = 0, No Iterations 0
diagonal:  Solving for rhoYi, Initial residual = 0, Final residual = 0, No Iterations 0
diagonal:  Solving for rhoE, Initial residual = 0, Final residual = 0, No Iterations 0
ExecutionTime = 23.54 s  ClockTime = 25 s

Mean and max Courant Numbers = 0.0824695338627 0.0998251615799
deltaT = 3.93686631346e-10
Time = 1.4374e-06

diagonal:  Solving for rho, Initial residual = 0, Final residual = 0, No Iterations 0
diagonal:  Solving for rhoUx, Initial residual = 0, Final residual = 0, No Iterations 0
diagonal:  Solving for rhoUz, Initial residual = 0, Final residual = 0, No Iterations 0
diagonal:  Solving for rhoYi, Initial residual = 0, Final residual = 0, No Iterations 0
diagonal:  Solving for rhoE, Initial residual = 0, Final residual = 0, No Iterations 0
THvfctree_XrhoP, ISAT performance: nCall = 0, notCall = 0, nRetrieved = 0, nGrowth = 0, nAdd = 0
THvfctree_XrhoP, recent info: nCall = 0, nRetrieved = 0, nGrowth = 0, nAdd = 0
NtimeSteps: 1120, Treedepth: 0, Mindepth: 0
maxNLeafs: 100
TEvfctree_XrhoP, ISAT performance: nCall = 0, notCall = 0, nRetrieved = 0, nGrowth = 0, nAdd = 0
TEvfctree_XrhoP, recent info: nCall = 0, nRetrieved = 0, nGrowth = 0, nAdd = 0
NtimeSteps: 1120, Treedepth: 0, Mindepth: 0
maxNLeafs: 100
ExecutionTime = 23.56 s  ClockTime = 25 s

Mean and max Courant Numbers = 0.0824706301644 0.0998357039265
deltaT = 3.93686631346e-10
Time = 1.4378e-06

diagonal:  Solving for rho, Initial residual = 0, Final residual = 0, No Iterations 0
diagonal:  Solving for rhoUx, Initial residual = 0, Final residual = 0, No Iterations 0
diagonal:  Solving for rhoUz, Initial residual = 0, Final residual = 0, No Iterations 0
diagonal:  Solving for rhoYi, Initial residual = 0, Final residual = 0, No Iterations 0
diagonal:  Solving for rhoE, Initial residual = 0, Final residual = 0, No Iterations 0
ExecutionTime = 23.58 s  ClockTime = 25 s

Mean and max Courant Numbers = 0.0824730851208 0.099844837872
deltaT = 3.93686631346e-10
Time = 1.43819e-06

diagonal:  Solving for rho, Initial residual = 0, Final residual = 0, No Iterations 0
diagonal:  Solving for rhoUx, Initial residual = 0, Final residual = 0, No Iterations 0
diagonal:  Solving for rhoUz, Initial residual = 0, Final residual = 0, No Iterations 0
diagonal:  Solving for rhoYi, Initial residual = 0, Final residual = 0, No Iterations 0
diagonal:  Solving for rhoE, Initial residual = 0, Final residual = 0, No Iterations 0
ExecutionTime = 23.6 s  ClockTime = 25 s

Mean and max Courant Numbers = 0.0824732749021 0.0998525566579
deltaT = 3.93686631346e-10
Time = 1.43858e-06

diagonal:  Solving for rho, Initial residual = 0, Final residual = 0, No Iterations 0
diagonal:  Solving for rhoUx, Initial residual = 0, Final residual = 0, No Iterations 0
diagonal:  Solving for rhoUz, Initial residual = 0, Final residual = 0, No Iterations 0
diagonal:  Solving for rhoYi, Initial residual = 0, Final residual = 0, No Iterations 0
diagonal:  Solving for rhoE, Initial residual = 0, Final residual = 0, No Iterations 0
